
OS:Version,
  {b738b664-1cb6-4d8f-83cf-15cdf1a0e27b}, !- Handle
  2.6.0;                                  !- Version Identifier

OS:Building,
  {a9ef0259-ee9a-4b51-8fc0-8ef38e769ece}, !- Handle
  Building 1,                             !- Name
  ,                                       !- Building Sector Type
  ,                                       !- North Axis {deg}
  ,                                       !- Nominal Floor to Floor Height {m}
  ,                                       !- Space Type Name
  {9c4f499f-df02-4b75-baf1-f266353b1fdb}, !- Default Construction Set Name
  ,                                       !- Default Schedule Set Name
  4,                                      !- Standards Number of Stories
  4,                                      !- Standards Number of Above Ground Stories
  NECB2015_unknown;                       !- Standards Building Type

OS:BuildingStory,
  {506b093c-8db8-43b7-90cc-80563e9afdd0}, !- Handle
  Story 1,                                !- Name
  0,                                      !- Nominal Z Coordinate {m}
  3.8,                                    !- Nominal Floor to Floor Height {m}
  ,                                       !- Default Construction Set Name
  ,                                       !- Default Schedule Set Name
  ;                                       !- Group Rendering Name

OS:Space,
  {889eedf7-dae1-4acc-af4c-6995b0f830be}, !- Handle
  Dining area - family dining-Space Function, !- Name
  {5a2613e7-793e-479c-8f15-837e4b4e07de}, !- Space Type Name
  ,                                       !- Default Construction Set Name
  ,                                       !- Default Schedule Set Name
  -0,                                     !- Direction of Relative North {deg}
  0,                                      !- X Origin {m}
  0,                                      !- Y Origin {m}
  0,                                      !- Z Origin {m}
  {506b093c-8db8-43b7-90cc-80563e9afdd0}, !- Building Story Name
  {c09bb06b-a9fd-452a-8ae4-105c19690aca}; !- Thermal Zone Name

OS:Surface,
  {a2d5eec3-450c-4a05-a09b-4b0299bbe682}, !- Handle
  Surface 1,                              !- Name
  Floor,                                  !- Surface Type
  ,                                       !- Construction Name
  {889eedf7-dae1-4acc-af4c-6995b0f830be}, !- Space Name
  Ground,                                 !- Outside Boundary Condition
  ,                                       !- Outside Boundary Condition Object
  NoSun,                                  !- Sun Exposure
  NoWind,                                 !- Wind Exposure
  ,                                       !- View Factor to Ground
  ,                                       !- Number of Vertices
  0, 0, 0,                                !- X,Y,Z Vertex 1 {m}
  0, 100, 0,                              !- X,Y,Z Vertex 2 {m}
  25, 75, 0,                              !- X,Y,Z Vertex 3 {m}
  25, 25, 0;                              !- X,Y,Z Vertex 4 {m}

OS:Surface,
  {d9abda2b-4bbc-489c-8e2c-11a50a1a874c}, !- Handle
  Surface 2,                              !- Name
  Wall,                                   !- Surface Type
  ,                                       !- Construction Name
  {889eedf7-dae1-4acc-af4c-6995b0f830be}, !- Space Name
  Ground,                                 !- Outside Boundary Condition
  ,                                       !- Outside Boundary Condition Object
  NoSun,                                  !- Sun Exposure
  NoWind,                                 !- Wind Exposure
  ,                                       !- View Factor to Ground
  ,                                       !- Number of Vertices
  0, 100, 3.8,                            !- X,Y,Z Vertex 1 {m}
  0, 100, 0,                              !- X,Y,Z Vertex 2 {m}
  0, 0, 0,                                !- X,Y,Z Vertex 3 {m}
  0, 0, 3.8;                              !- X,Y,Z Vertex 4 {m}

OS:Surface,
  {7bb43124-811e-41fa-8bb2-5d26a2e68de6}, !- Handle
  Surface 3,                              !- Name
  Wall,                                   !- Surface Type
  ,                                       !- Construction Name
  {889eedf7-dae1-4acc-af4c-6995b0f830be}, !- Space Name
  Surface,                                !- Outside Boundary Condition
  {fc7edc93-456c-43a9-8e9d-409b5320fad5}, !- Outside Boundary Condition Object
  NoSun,                                  !- Sun Exposure
  NoWind,                                 !- Wind Exposure
  ,                                       !- View Factor to Ground
  ,                                       !- Number of Vertices
  25, 75, 3.8,                            !- X,Y,Z Vertex 1 {m}
  25, 75, 0,                              !- X,Y,Z Vertex 2 {m}
  0, 100, 0,                              !- X,Y,Z Vertex 3 {m}
  0, 100, 3.8;                            !- X,Y,Z Vertex 4 {m}

OS:Surface,
  {0192a143-e2e6-4deb-b658-5142565cb4a7}, !- Handle
  Surface 4,                              !- Name
  Wall,                                   !- Surface Type
  ,                                       !- Construction Name
  {889eedf7-dae1-4acc-af4c-6995b0f830be}, !- Space Name
  Surface,                                !- Outside Boundary Condition
  {86dca5b7-7b6e-49e8-b2bd-653e73835cef}, !- Outside Boundary Condition Object
  NoSun,                                  !- Sun Exposure
  NoWind,                                 !- Wind Exposure
  ,                                       !- View Factor to Ground
  ,                                       !- Number of Vertices
  25, 25, 3.8,                            !- X,Y,Z Vertex 1 {m}
  25, 25, 0,                              !- X,Y,Z Vertex 2 {m}
  25, 75, 0,                              !- X,Y,Z Vertex 3 {m}
  25, 75, 3.8;                            !- X,Y,Z Vertex 4 {m}

OS:Surface,
  {e26aff7f-2d70-4d17-8391-b31bce5b6ce2}, !- Handle
  Surface 5,                              !- Name
  Wall,                                   !- Surface Type
  ,                                       !- Construction Name
  {889eedf7-dae1-4acc-af4c-6995b0f830be}, !- Space Name
  Surface,                                !- Outside Boundary Condition
  {44286956-707f-45d9-9a5b-8b3150eaf558}, !- Outside Boundary Condition Object
  NoSun,                                  !- Sun Exposure
  NoWind,                                 !- Wind Exposure
  ,                                       !- View Factor to Ground
  ,                                       !- Number of Vertices
  0, 0, 3.8,                              !- X,Y,Z Vertex 1 {m}
  0, 0, 0,                                !- X,Y,Z Vertex 2 {m}
  25, 25, 0,                              !- X,Y,Z Vertex 3 {m}
  25, 25, 3.8;                            !- X,Y,Z Vertex 4 {m}

OS:Surface,
  {5afe29a8-8b38-4c29-8289-531e28c9ce4c}, !- Handle
  Surface 6,                              !- Name
  RoofCeiling,                            !- Surface Type
  ,                                       !- Construction Name
  {889eedf7-dae1-4acc-af4c-6995b0f830be}, !- Space Name
  Surface,                                !- Outside Boundary Condition
  {1a3828ad-deab-433a-85df-549233bd62b2}, !- Outside Boundary Condition Object
  NoSun,                                  !- Sun Exposure
  NoWind,                                 !- Wind Exposure
  ,                                       !- View Factor to Ground
  ,                                       !- Number of Vertices
  25, 25, 3.8,                            !- X,Y,Z Vertex 1 {m}
  25, 75, 3.8,                            !- X,Y,Z Vertex 2 {m}
  0, 100, 3.8,                            !- X,Y,Z Vertex 3 {m}
  0, 0, 3.8;                              !- X,Y,Z Vertex 4 {m}

OS:Space,
  {30bd2a22-542f-4843-8b54-71e8d048e4e0}, !- Handle
  Confinement cell-Space Function,        !- Name
  {3fd92c01-83ba-4f1c-bdff-2f4f0de7e88f}, !- Space Type Name
  ,                                       !- Default Construction Set Name
  ,                                       !- Default Schedule Set Name
  -0,                                     !- Direction of Relative North {deg}
  25,                                     !- X Origin {m}
  75,                                     !- Y Origin {m}
  0,                                      !- Z Origin {m}
  {506b093c-8db8-43b7-90cc-80563e9afdd0}, !- Building Story Name
  {84082abe-9055-48c7-b22a-2381beead265}; !- Thermal Zone Name

OS:Surface,
  {1ce2287f-b4a6-472d-80be-0d61df1817ed}, !- Handle
  Surface 7,                              !- Name
  Floor,                                  !- Surface Type
  ,                                       !- Construction Name
  {30bd2a22-542f-4843-8b54-71e8d048e4e0}, !- Space Name
  Ground,                                 !- Outside Boundary Condition
  ,                                       !- Outside Boundary Condition Object
  NoSun,                                  !- Sun Exposure
  NoWind,                                 !- Wind Exposure
  ,                                       !- View Factor to Ground
  ,                                       !- Number of Vertices
  -25, 25, 0,                             !- X,Y,Z Vertex 1 {m}
  75, 25, 0,                              !- X,Y,Z Vertex 2 {m}
  50, 0, 0,                               !- X,Y,Z Vertex 3 {m}
  0, 0, 0;                                !- X,Y,Z Vertex 4 {m}

OS:Surface,
  {ed2c1bbf-9b68-42c5-8ab3-9025e412c3b0}, !- Handle
  Surface 8,                              !- Name
  Wall,                                   !- Surface Type
  ,                                       !- Construction Name
  {30bd2a22-542f-4843-8b54-71e8d048e4e0}, !- Space Name
  Ground,                                 !- Outside Boundary Condition
  ,                                       !- Outside Boundary Condition Object
  NoSun,                                  !- Sun Exposure
  NoWind,                                 !- Wind Exposure
  ,                                       !- View Factor to Ground
  ,                                       !- Number of Vertices
  75, 25, 3.8,                            !- X,Y,Z Vertex 1 {m}
  75, 25, 0,                              !- X,Y,Z Vertex 2 {m}
  -25, 25, 0,                             !- X,Y,Z Vertex 3 {m}
  -25, 25, 3.8;                           !- X,Y,Z Vertex 4 {m}

OS:Surface,
  {43aab235-2019-49b6-b5f9-ae101edaf5d4}, !- Handle
  Surface 9,                              !- Name
  Wall,                                   !- Surface Type
  ,                                       !- Construction Name
  {30bd2a22-542f-4843-8b54-71e8d048e4e0}, !- Space Name
  Surface,                                !- Outside Boundary Condition
  {2400bb1a-637e-45e9-8ac8-e51a50df8dd4}, !- Outside Boundary Condition Object
  NoSun,                                  !- Sun Exposure
  NoWind,                                 !- Wind Exposure
  ,                                       !- View Factor to Ground
  ,                                       !- Number of Vertices
  50, 0, 3.8,                             !- X,Y,Z Vertex 1 {m}
  50, 0, 0,                               !- X,Y,Z Vertex 2 {m}
  75, 25, 0,                              !- X,Y,Z Vertex 3 {m}
  75, 25, 3.8;                            !- X,Y,Z Vertex 4 {m}

OS:Surface,
  {06489a79-c315-4c14-9484-6d35ee9ff7fd}, !- Handle
  Surface 10,                             !- Name
  Wall,                                   !- Surface Type
  ,                                       !- Construction Name
  {30bd2a22-542f-4843-8b54-71e8d048e4e0}, !- Space Name
  Surface,                                !- Outside Boundary Condition
  {d8c7562a-3169-4f76-8068-b1c85d51a153}, !- Outside Boundary Condition Object
  NoSun,                                  !- Sun Exposure
  NoWind,                                 !- Wind Exposure
  ,                                       !- View Factor to Ground
  ,                                       !- Number of Vertices
  0, 0, 3.8,                              !- X,Y,Z Vertex 1 {m}
  0, 0, 0,                                !- X,Y,Z Vertex 2 {m}
  50, 0, 0,                               !- X,Y,Z Vertex 3 {m}
  50, 0, 3.8;                             !- X,Y,Z Vertex 4 {m}

OS:Surface,
  {fc7edc93-456c-43a9-8e9d-409b5320fad5}, !- Handle
  Surface 11,                             !- Name
  Wall,                                   !- Surface Type
  ,                                       !- Construction Name
  {30bd2a22-542f-4843-8b54-71e8d048e4e0}, !- Space Name
  Surface,                                !- Outside Boundary Condition
  {7bb43124-811e-41fa-8bb2-5d26a2e68de6}, !- Outside Boundary Condition Object
  NoSun,                                  !- Sun Exposure
  NoWind,                                 !- Wind Exposure
  ,                                       !- View Factor to Ground
  ,                                       !- Number of Vertices
  -25, 25, 3.8,                           !- X,Y,Z Vertex 1 {m}
  -25, 25, 0,                             !- X,Y,Z Vertex 2 {m}
  0, 0, 0,                                !- X,Y,Z Vertex 3 {m}
  0, 0, 3.8;                              !- X,Y,Z Vertex 4 {m}

OS:Surface,
  {d10c6106-8f7a-4eab-8382-4ff6187edad9}, !- Handle
  Surface 12,                             !- Name
  RoofCeiling,                            !- Surface Type
  ,                                       !- Construction Name
  {30bd2a22-542f-4843-8b54-71e8d048e4e0}, !- Space Name
  Surface,                                !- Outside Boundary Condition
  {7c502af1-d3ad-43c6-aa61-8c8c6c2e3aa6}, !- Outside Boundary Condition Object
  NoSun,                                  !- Sun Exposure
  NoWind,                                 !- Wind Exposure
  ,                                       !- View Factor to Ground
  ,                                       !- Number of Vertices
  0, 0, 3.8,                              !- X,Y,Z Vertex 1 {m}
  50, 0, 3.8,                             !- X,Y,Z Vertex 2 {m}
  75, 25, 3.8,                            !- X,Y,Z Vertex 3 {m}
  -25, 25, 3.8;                           !- X,Y,Z Vertex 4 {m}

OS:Space,
  {289d58df-232c-4b3e-8a3a-ef17b01e3603}, !- Handle
  Copy/Print room-Space Function,         !- Name
  {d552e82d-fac2-477b-8b66-71c9a103ade3}, !- Space Type Name
  ,                                       !- Default Construction Set Name
  ,                                       !- Default Schedule Set Name
  -0,                                     !- Direction of Relative North {deg}
  75,                                     !- X Origin {m}
  25,                                     !- Y Origin {m}
  0,                                      !- Z Origin {m}
  {506b093c-8db8-43b7-90cc-80563e9afdd0}, !- Building Story Name
  {e64381ed-9a2b-4238-aecd-087f572e1bf7}; !- Thermal Zone Name

OS:Surface,
  {50ed406f-e1e6-4c50-af6b-24f7a1a6a0b9}, !- Handle
  Surface 13,                             !- Name
  Floor,                                  !- Surface Type
  ,                                       !- Construction Name
  {289d58df-232c-4b3e-8a3a-ef17b01e3603}, !- Space Name
  Ground,                                 !- Outside Boundary Condition
  ,                                       !- Outside Boundary Condition Object
  NoSun,                                  !- Sun Exposure
  NoWind,                                 !- Wind Exposure
  ,                                       !- View Factor to Ground
  ,                                       !- Number of Vertices
  25, 75, 0,                              !- X,Y,Z Vertex 1 {m}
  25, -25, 0,                             !- X,Y,Z Vertex 2 {m}
  0, 0, 0,                                !- X,Y,Z Vertex 3 {m}
  0, 50, 0;                               !- X,Y,Z Vertex 4 {m}

OS:Surface,
  {e45bd010-5615-4aed-80bb-a7f93260f7c8}, !- Handle
  Surface 14,                             !- Name
  Wall,                                   !- Surface Type
  ,                                       !- Construction Name
  {289d58df-232c-4b3e-8a3a-ef17b01e3603}, !- Space Name
  Ground,                                 !- Outside Boundary Condition
  ,                                       !- Outside Boundary Condition Object
  NoSun,                                  !- Sun Exposure
  NoWind,                                 !- Wind Exposure
  ,                                       !- View Factor to Ground
  ,                                       !- Number of Vertices
  25, -25, 3.8,                           !- X,Y,Z Vertex 1 {m}
  25, -25, 0,                             !- X,Y,Z Vertex 2 {m}
  25, 75, 0,                              !- X,Y,Z Vertex 3 {m}
  25, 75, 3.8;                            !- X,Y,Z Vertex 4 {m}

OS:Surface,
  {13ae7bca-164f-4e21-9315-2123714627c0}, !- Handle
  Surface 15,                             !- Name
  Wall,                                   !- Surface Type
  ,                                       !- Construction Name
  {289d58df-232c-4b3e-8a3a-ef17b01e3603}, !- Space Name
  Surface,                                !- Outside Boundary Condition
  {c086a5b9-3360-4609-8e91-400101034f8e}, !- Outside Boundary Condition Object
  NoSun,                                  !- Sun Exposure
  NoWind,                                 !- Wind Exposure
  ,                                       !- View Factor to Ground
  ,                                       !- Number of Vertices
  0, 0, 3.8,                              !- X,Y,Z Vertex 1 {m}
  0, 0, 0,                                !- X,Y,Z Vertex 2 {m}
  25, -25, 0,                             !- X,Y,Z Vertex 3 {m}
  25, -25, 3.8;                           !- X,Y,Z Vertex 4 {m}

OS:Surface,
  {2392cda6-a502-4c14-86e5-7aeb68b84d39}, !- Handle
  Surface 16,                             !- Name
  Wall,                                   !- Surface Type
  ,                                       !- Construction Name
  {289d58df-232c-4b3e-8a3a-ef17b01e3603}, !- Space Name
  Surface,                                !- Outside Boundary Condition
  {c4b30525-5b40-4ca6-a25b-4efea3ee01c8}, !- Outside Boundary Condition Object
  NoSun,                                  !- Sun Exposure
  NoWind,                                 !- Wind Exposure
  ,                                       !- View Factor to Ground
  ,                                       !- Number of Vertices
  0, 50, 3.8,                             !- X,Y,Z Vertex 1 {m}
  0, 50, 0,                               !- X,Y,Z Vertex 2 {m}
  0, 0, 0,                                !- X,Y,Z Vertex 3 {m}
  0, 0, 3.8;                              !- X,Y,Z Vertex 4 {m}

OS:Surface,
  {2400bb1a-637e-45e9-8ac8-e51a50df8dd4}, !- Handle
  Surface 17,                             !- Name
  Wall,                                   !- Surface Type
  ,                                       !- Construction Name
  {289d58df-232c-4b3e-8a3a-ef17b01e3603}, !- Space Name
  Surface,                                !- Outside Boundary Condition
  {43aab235-2019-49b6-b5f9-ae101edaf5d4}, !- Outside Boundary Condition Object
  NoSun,                                  !- Sun Exposure
  NoWind,                                 !- Wind Exposure
  ,                                       !- View Factor to Ground
  ,                                       !- Number of Vertices
  25, 75, 3.8,                            !- X,Y,Z Vertex 1 {m}
  25, 75, 0,                              !- X,Y,Z Vertex 2 {m}
  0, 50, 0,                               !- X,Y,Z Vertex 3 {m}
  0, 50, 3.8;                             !- X,Y,Z Vertex 4 {m}

OS:Surface,
  {72733180-3453-4fd2-94b1-385fd54b4d01}, !- Handle
  Surface 18,                             !- Name
  RoofCeiling,                            !- Surface Type
  ,                                       !- Construction Name
  {289d58df-232c-4b3e-8a3a-ef17b01e3603}, !- Space Name
  Surface,                                !- Outside Boundary Condition
  {63852c63-c3bd-4adc-8731-0866330781fd}, !- Outside Boundary Condition Object
  NoSun,                                  !- Sun Exposure
  NoWind,                                 !- Wind Exposure
  ,                                       !- View Factor to Ground
  ,                                       !- Number of Vertices
  0, 50, 3.8,                             !- X,Y,Z Vertex 1 {m}
  0, 0, 3.8,                              !- X,Y,Z Vertex 2 {m}
  25, -25, 3.8,                           !- X,Y,Z Vertex 3 {m}
  25, 75, 3.8;                            !- X,Y,Z Vertex 4 {m}

OS:Space,
  {db4cd120-f67c-46b3-bd06-252b3ecec569}, !- Handle
  Dining area - other-Space Function,     !- Name
  {cefd4b03-370c-4976-b8e6-ad4c860e6d8d}, !- Space Type Name
  ,                                       !- Default Construction Set Name
  ,                                       !- Default Schedule Set Name
  -0,                                     !- Direction of Relative North {deg}
  0,                                      !- X Origin {m}
  0,                                      !- Y Origin {m}
  0,                                      !- Z Origin {m}
  {506b093c-8db8-43b7-90cc-80563e9afdd0}, !- Building Story Name
  {69d5b14c-ee40-48b4-9683-a61004c18d2b}; !- Thermal Zone Name

OS:Surface,
  {51c3e9bf-092a-46a5-89e2-93c6f48906ef}, !- Handle
  Surface 19,                             !- Name
  Floor,                                  !- Surface Type
  ,                                       !- Construction Name
  {db4cd120-f67c-46b3-bd06-252b3ecec569}, !- Space Name
  Ground,                                 !- Outside Boundary Condition
  ,                                       !- Outside Boundary Condition Object
  NoSun,                                  !- Sun Exposure
  NoWind,                                 !- Wind Exposure
  ,                                       !- View Factor to Ground
  ,                                       !- Number of Vertices
  100, 0, 0,                              !- X,Y,Z Vertex 1 {m}
  0, 0, 0,                                !- X,Y,Z Vertex 2 {m}
  25, 25, 0,                              !- X,Y,Z Vertex 3 {m}
  75, 25, 0;                              !- X,Y,Z Vertex 4 {m}

OS:Surface,
  {698fbe26-527f-4758-a7bd-21e1c9ef693f}, !- Handle
  Surface 20,                             !- Name
  Wall,                                   !- Surface Type
  ,                                       !- Construction Name
  {db4cd120-f67c-46b3-bd06-252b3ecec569}, !- Space Name
  Ground,                                 !- Outside Boundary Condition
  ,                                       !- Outside Boundary Condition Object
  NoSun,                                  !- Sun Exposure
  NoWind,                                 !- Wind Exposure
  ,                                       !- View Factor to Ground
  ,                                       !- Number of Vertices
  0, 0, 3.8,                              !- X,Y,Z Vertex 1 {m}
  0, 0, 0,                                !- X,Y,Z Vertex 2 {m}
  100, 0, 0,                              !- X,Y,Z Vertex 3 {m}
  100, 0, 3.8;                            !- X,Y,Z Vertex 4 {m}

OS:Surface,
  {44286956-707f-45d9-9a5b-8b3150eaf558}, !- Handle
  Surface 21,                             !- Name
  Wall,                                   !- Surface Type
  ,                                       !- Construction Name
  {db4cd120-f67c-46b3-bd06-252b3ecec569}, !- Space Name
  Surface,                                !- Outside Boundary Condition
  {e26aff7f-2d70-4d17-8391-b31bce5b6ce2}, !- Outside Boundary Condition Object
  NoSun,                                  !- Sun Exposure
  NoWind,                                 !- Wind Exposure
  ,                                       !- View Factor to Ground
  ,                                       !- Number of Vertices
  25, 25, 3.8,                            !- X,Y,Z Vertex 1 {m}
  25, 25, 0,                              !- X,Y,Z Vertex 2 {m}
  0, 0, 0,                                !- X,Y,Z Vertex 3 {m}
  0, 0, 3.8;                              !- X,Y,Z Vertex 4 {m}

OS:Surface,
  {c66a2466-1f01-4078-8227-6ef769818e6f}, !- Handle
  Surface 22,                             !- Name
  Wall,                                   !- Surface Type
  ,                                       !- Construction Name
  {db4cd120-f67c-46b3-bd06-252b3ecec569}, !- Space Name
  Surface,                                !- Outside Boundary Condition
  {fb166332-f403-49ba-a677-672321d3290c}, !- Outside Boundary Condition Object
  NoSun,                                  !- Sun Exposure
  NoWind,                                 !- Wind Exposure
  ,                                       !- View Factor to Ground
  ,                                       !- Number of Vertices
  75, 25, 3.8,                            !- X,Y,Z Vertex 1 {m}
  75, 25, 0,                              !- X,Y,Z Vertex 2 {m}
  25, 25, 0,                              !- X,Y,Z Vertex 3 {m}
  25, 25, 3.8;                            !- X,Y,Z Vertex 4 {m}

OS:Surface,
  {c086a5b9-3360-4609-8e91-400101034f8e}, !- Handle
  Surface 23,                             !- Name
  Wall,                                   !- Surface Type
  ,                                       !- Construction Name
  {db4cd120-f67c-46b3-bd06-252b3ecec569}, !- Space Name
  Surface,                                !- Outside Boundary Condition
  {13ae7bca-164f-4e21-9315-2123714627c0}, !- Outside Boundary Condition Object
  NoSun,                                  !- Sun Exposure
  NoWind,                                 !- Wind Exposure
  ,                                       !- View Factor to Ground
  ,                                       !- Number of Vertices
  100, 0, 3.8,                            !- X,Y,Z Vertex 1 {m}
  100, 0, 0,                              !- X,Y,Z Vertex 2 {m}
  75, 25, 0,                              !- X,Y,Z Vertex 3 {m}
  75, 25, 3.8;                            !- X,Y,Z Vertex 4 {m}

OS:Surface,
  {02365070-ea44-40cd-bd44-3b05b3312713}, !- Handle
  Surface 24,                             !- Name
  RoofCeiling,                            !- Surface Type
  ,                                       !- Construction Name
  {db4cd120-f67c-46b3-bd06-252b3ecec569}, !- Space Name
  Surface,                                !- Outside Boundary Condition
  {f77fa97a-9435-4014-a46f-e788e8ca0b73}, !- Outside Boundary Condition Object
  NoSun,                                  !- Sun Exposure
  NoWind,                                 !- Wind Exposure
  ,                                       !- View Factor to Ground
  ,                                       !- Number of Vertices
  75, 25, 3.8,                            !- X,Y,Z Vertex 1 {m}
  25, 25, 3.8,                            !- X,Y,Z Vertex 2 {m}
  0, 0, 3.8,                              !- X,Y,Z Vertex 3 {m}
  100, 0, 3.8;                            !- X,Y,Z Vertex 4 {m}

OS:Space,
  {72af771e-4624-4bae-96a9-22c8f95d1fa9}, !- Handle
  Dining area - bar lounge/leisure dining-Space Function, !- Name
  {593e7358-cfbf-48f9-ae76-c39e2f8fd321}, !- Space Type Name
  ,                                       !- Default Construction Set Name
  ,                                       !- Default Schedule Set Name
  -0,                                     !- Direction of Relative North {deg}
  25,                                     !- X Origin {m}
  25,                                     !- Y Origin {m}
  0,                                      !- Z Origin {m}
  {506b093c-8db8-43b7-90cc-80563e9afdd0}, !- Building Story Name
  {564ee0c6-7942-42e8-a51c-3a7f363df724}; !- Thermal Zone Name

OS:Surface,
  {0ab54d1b-238f-4261-92ac-d14614f8b34d}, !- Handle
  Surface 25,                             !- Name
  Floor,                                  !- Surface Type
  ,                                       !- Construction Name
  {72af771e-4624-4bae-96a9-22c8f95d1fa9}, !- Space Name
  Ground,                                 !- Outside Boundary Condition
  ,                                       !- Outside Boundary Condition Object
  NoSun,                                  !- Sun Exposure
  NoWind,                                 !- Wind Exposure
  ,                                       !- View Factor to Ground
  ,                                       !- Number of Vertices
  0, 0, 0,                                !- X,Y,Z Vertex 1 {m}
  0, 50, 0,                               !- X,Y,Z Vertex 2 {m}
  50, 50, 0,                              !- X,Y,Z Vertex 3 {m}
  50, 0, 0;                               !- X,Y,Z Vertex 4 {m}

OS:Surface,
  {86dca5b7-7b6e-49e8-b2bd-653e73835cef}, !- Handle
  Surface 26,                             !- Name
  Wall,                                   !- Surface Type
  ,                                       !- Construction Name
  {72af771e-4624-4bae-96a9-22c8f95d1fa9}, !- Space Name
  Surface,                                !- Outside Boundary Condition
  {0192a143-e2e6-4deb-b658-5142565cb4a7}, !- Outside Boundary Condition Object
  NoSun,                                  !- Sun Exposure
  NoWind,                                 !- Wind Exposure
  ,                                       !- View Factor to Ground
  ,                                       !- Number of Vertices
  0, 50, 3.8,                             !- X,Y,Z Vertex 1 {m}
  0, 50, 0,                               !- X,Y,Z Vertex 2 {m}
  0, 0, 0,                                !- X,Y,Z Vertex 3 {m}
  0, 0, 3.8;                              !- X,Y,Z Vertex 4 {m}

OS:Surface,
  {d8c7562a-3169-4f76-8068-b1c85d51a153}, !- Handle
  Surface 27,                             !- Name
  Wall,                                   !- Surface Type
  ,                                       !- Construction Name
  {72af771e-4624-4bae-96a9-22c8f95d1fa9}, !- Space Name
  Surface,                                !- Outside Boundary Condition
  {06489a79-c315-4c14-9484-6d35ee9ff7fd}, !- Outside Boundary Condition Object