
OS:Version,
  {6ab06b95-54ca-497e-b876-58a0f7ad9950}, !- Handle
  2.6.0;                                  !- Version Identifier

OS:Building,
  {6e6ad234-da74-492e-ac9d-9372d52dbe68}, !- Handle
  Building 1,                             !- Name
  ,                                       !- Building Sector Type
  ,                                       !- North Axis {deg}
  ,                                       !- Nominal Floor to Floor Height {m}
  ,                                       !- Space Type Name
  {687a0e3f-395d-451f-ab71-3eefa53b4562}, !- Default Construction Set Name
  ,                                       !- Default Schedule Set Name
  8,                                      !- Standards Number of Stories
  8,                                      !- Standards Number of Above Ground Stories
  NECB2011_unknown;                       !- Standards Building Type

OS:BuildingStory,
  {803e6bab-7c14-4289-afb1-44e20485520b}, !- Handle
  Story 1,                                !- Name
  0,                                      !- Nominal Z Coordinate {m}
  3.8,                                    !- Nominal Floor to Floor Height {m}
  ,                                       !- Default Construction Set Name
  ,                                       !- Default Schedule Set Name
  ;                                       !- Group Rendering Name

OS:Space,
  {4a61a565-9622-4dc9-bec1-88e7d72fd8fe}, !- Handle
  Storage area - refrigerated - occsens-Space Function, !- Name
  {4bbcb446-6fe6-42f8-a65a-f6536fa881f3}, !- Space Type Name
  ,                                       !- Default Construction Set Name
  ,                                       !- Default Schedule Set Name
  -0,                                     !- Direction of Relative North {deg}
  0,                                      !- X Origin {m}
  0,                                      !- Y Origin {m}
  0,                                      !- Z Origin {m}
  {803e6bab-7c14-4289-afb1-44e20485520b}, !- Building Story Name
  {de13da71-56f9-45b1-b8da-eb25046666fe}; !- Thermal Zone Name

OS:Surface,
  {6ac116db-eb51-41b4-b0af-0d5a006c6553}, !- Handle
  Surface 1,                              !- Name
  Floor,                                  !- Surface Type
  ,                                       !- Construction Name
  {4a61a565-9622-4dc9-bec1-88e7d72fd8fe}, !- Space Name
  Ground,                                 !- Outside Boundary Condition
  ,                                       !- Outside Boundary Condition Object
  NoSun,                                  !- Sun Exposure
  NoWind,                                 !- Wind Exposure
  ,                                       !- View Factor to Ground
  ,                                       !- Number of Vertices
  0, 0, 0,                                !- X,Y,Z Vertex 1 {m}
  0, 100, 0,                              !- X,Y,Z Vertex 2 {m}
  25, 75, 0,                              !- X,Y,Z Vertex 3 {m}
  25, 25, 0;                              !- X,Y,Z Vertex 4 {m}

OS:Surface,
  {10c50266-267f-4289-97de-7dc42bdb243d}, !- Handle
  Surface 2,                              !- Name
  Wall,                                   !- Surface Type
  ,                                       !- Construction Name
  {4a61a565-9622-4dc9-bec1-88e7d72fd8fe}, !- Space Name
  Ground,                                 !- Outside Boundary Condition
  ,                                       !- Outside Boundary Condition Object
  NoSun,                                  !- Sun Exposure
  NoWind,                                 !- Wind Exposure
  ,                                       !- View Factor to Ground
  ,                                       !- Number of Vertices
  0, 100, 3.8,                            !- X,Y,Z Vertex 1 {m}
  0, 100, 0,                              !- X,Y,Z Vertex 2 {m}
  0, 0, 0,                                !- X,Y,Z Vertex 3 {m}
  0, 0, 3.8;                              !- X,Y,Z Vertex 4 {m}

OS:Surface,
  {23cdc97a-e0aa-4a21-b3c3-077decfcf038}, !- Handle
  Surface 3,                              !- Name
  Wall,                                   !- Surface Type
  ,                                       !- Construction Name
  {4a61a565-9622-4dc9-bec1-88e7d72fd8fe}, !- Space Name
  Surface,                                !- Outside Boundary Condition
  {665aaa27-09b6-458d-8817-bc8556bd48f8}, !- Outside Boundary Condition Object
  NoSun,                                  !- Sun Exposure
  NoWind,                                 !- Wind Exposure
  ,                                       !- View Factor to Ground
  ,                                       !- Number of Vertices
  25, 75, 3.8,                            !- X,Y,Z Vertex 1 {m}
  25, 75, 0,                              !- X,Y,Z Vertex 2 {m}
  0, 100, 0,                              !- X,Y,Z Vertex 3 {m}
  0, 100, 3.8;                            !- X,Y,Z Vertex 4 {m}

OS:Surface,
  {95be55aa-829c-4fce-a23a-1536f25a3950}, !- Handle
  Surface 4,                              !- Name
  Wall,                                   !- Surface Type
  ,                                       !- Construction Name
  {4a61a565-9622-4dc9-bec1-88e7d72fd8fe}, !- Space Name
  Surface,                                !- Outside Boundary Condition
  {d4e89396-c93a-4ebe-937e-b4a6ecf66420}, !- Outside Boundary Condition Object
  NoSun,                                  !- Sun Exposure
  NoWind,                                 !- Wind Exposure
  ,                                       !- View Factor to Ground
  ,                                       !- Number of Vertices
  25, 25, 3.8,                            !- X,Y,Z Vertex 1 {m}
  25, 25, 0,                              !- X,Y,Z Vertex 2 {m}
  25, 75, 0,                              !- X,Y,Z Vertex 3 {m}
  25, 75, 3.8;                            !- X,Y,Z Vertex 4 {m}

OS:Surface,
  {f1a7d817-e71c-49cf-a268-152f11c12b14}, !- Handle
  Surface 5,                              !- Name
  Wall,                                   !- Surface Type
  ,                                       !- Construction Name
  {4a61a565-9622-4dc9-bec1-88e7d72fd8fe}, !- Space Name
  Surface,                                !- Outside Boundary Condition
  {8abb2d0b-b684-4d1c-9ccb-2841b149d8cb}, !- Outside Boundary Condition Object
  NoSun,                                  !- Sun Exposure
  NoWind,                                 !- Wind Exposure
  ,                                       !- View Factor to Ground
  ,                                       !- Number of Vertices
  0, 0, 3.8,                              !- X,Y,Z Vertex 1 {m}
  0, 0, 0,                                !- X,Y,Z Vertex 2 {m}
  25, 25, 0,                              !- X,Y,Z Vertex 3 {m}
  25, 25, 3.8;                            !- X,Y,Z Vertex 4 {m}

OS:Surface,
  {b5387cd8-6cea-4b6f-831c-eb11ae67521d}, !- Handle
  Surface 6,                              !- Name
  RoofCeiling,                            !- Surface Type
  ,                                       !- Construction Name
  {4a61a565-9622-4dc9-bec1-88e7d72fd8fe}, !- Space Name
  Surface,                                !- Outside Boundary Condition
  {b9a99254-0bae-4b07-af8f-83aad987a155}, !- Outside Boundary Condition Object
  NoSun,                                  !- Sun Exposure
  NoWind,                                 !- Wind Exposure
  ,                                       !- View Factor to Ground
  ,                                       !- Number of Vertices
  25, 25, 3.8,                            !- X,Y,Z Vertex 1 {m}
  25, 75, 3.8,                            !- X,Y,Z Vertex 2 {m}
  0, 100, 3.8,                            !- X,Y,Z Vertex 3 {m}
  0, 0, 3.8;                              !- X,Y,Z Vertex 4 {m}

OS:Space,
  {d2800436-4b6f-4fe1-bc0a-476fd805468a}, !- Handle
  Washroom-sch-A-Space Function,          !- Name
  {1acbb048-959c-4cc6-899d-aa278a70c2b6}, !- Space Type Name
  ,                                       !- Default Construction Set Name
  ,                                       !- Default Schedule Set Name
  -0,                                     !- Direction of Relative North {deg}
  25,                                     !- X Origin {m}
  75,                                     !- Y Origin {m}
  0,                                      !- Z Origin {m}
  {803e6bab-7c14-4289-afb1-44e20485520b}, !- Building Story Name
  {9c929d68-2362-470d-8189-0658b4507d27}; !- Thermal Zone Name

OS:Surface,
  {2e24df3d-24f2-46e4-a78a-460a4b21e7bc}, !- Handle
  Surface 7,                              !- Name
  Floor,                                  !- Surface Type
  ,                                       !- Construction Name
  {d2800436-4b6f-4fe1-bc0a-476fd805468a}, !- Space Name
  Ground,                                 !- Outside Boundary Condition
  ,                                       !- Outside Boundary Condition Object
  NoSun,                                  !- Sun Exposure
  NoWind,                                 !- Wind Exposure
  ,                                       !- View Factor to Ground
  ,                                       !- Number of Vertices
  -25, 25, 0,                             !- X,Y,Z Vertex 1 {m}
  75, 25, 0,                              !- X,Y,Z Vertex 2 {m}
  50, 0, 0,                               !- X,Y,Z Vertex 3 {m}
  0, 0, 0;                                !- X,Y,Z Vertex 4 {m}

OS:Surface,
  {8394839f-709c-46f4-b011-1e36456574de}, !- Handle
  Surface 8,                              !- Name
  Wall,                                   !- Surface Type
  ,                                       !- Construction Name
  {d2800436-4b6f-4fe1-bc0a-476fd805468a}, !- Space Name
  Ground,                                 !- Outside Boundary Condition
  ,                                       !- Outside Boundary Condition Object
  NoSun,                                  !- Sun Exposure
  NoWind,                                 !- Wind Exposure
  ,                                       !- View Factor to Ground
  ,                                       !- Number of Vertices
  75, 25, 3.8,                            !- X,Y,Z Vertex 1 {m}
  75, 25, 0,                              !- X,Y,Z Vertex 2 {m}
  -25, 25, 0,                             !- X,Y,Z Vertex 3 {m}
  -25, 25, 3.8;                           !- X,Y,Z Vertex 4 {m}

OS:Surface,
  {2a2e45ca-1f98-4548-ab20-ec937153c7e2}, !- Handle
  Surface 9,                              !- Name
  Wall,                                   !- Surface Type
  ,                                       !- Construction Name
  {d2800436-4b6f-4fe1-bc0a-476fd805468a}, !- Space Name
  Surface,                                !- Outside Boundary Condition
  {cdeb0eee-b2ad-4f32-b10e-e61aad7f354e}, !- Outside Boundary Condition Object
  NoSun,                                  !- Sun Exposure
  NoWind,                                 !- Wind Exposure
  ,                                       !- View Factor to Ground
  ,                                       !- Number of Vertices
  50, 0, 3.8,                             !- X,Y,Z Vertex 1 {m}
  50, 0, 0,                               !- X,Y,Z Vertex 2 {m}
  75, 25, 0,                              !- X,Y,Z Vertex 3 {m}
  75, 25, 3.8;                            !- X,Y,Z Vertex 4 {m}

OS:Surface,
  {ce5e80f3-0cce-4744-b057-1f5eb76b2aab}, !- Handle
  Surface 10,                             !- Name
  Wall,                                   !- Surface Type
  ,                                       !- Construction Name
  {d2800436-4b6f-4fe1-bc0a-476fd805468a}, !- Space Name
  Surface,                                !- Outside Boundary Condition
  {28677611-330e-4828-b1e1-1a9944a608d8}, !- Outside Boundary Condition Object
  NoSun,                                  !- Sun Exposure
  NoWind,                                 !- Wind Exposure
  ,                                       !- View Factor to Ground
  ,                                       !- Number of Vertices
  0, 0, 3.8,                              !- X,Y,Z Vertex 1 {m}
  0, 0, 0,                                !- X,Y,Z Vertex 2 {m}
  50, 0, 0,                               !- X,Y,Z Vertex 3 {m}
  50, 0, 3.8;                             !- X,Y,Z Vertex 4 {m}

OS:Surface,
  {665aaa27-09b6-458d-8817-bc8556bd48f8}, !- Handle
  Surface 11,                             !- Name
  Wall,                                   !- Surface Type
  ,                                       !- Construction Name
  {d2800436-4b6f-4fe1-bc0a-476fd805468a}, !- Space Name
  Surface,                                !- Outside Boundary Condition
  {23cdc97a-e0aa-4a21-b3c3-077decfcf038}, !- Outside Boundary Condition Object
  NoSun,                                  !- Sun Exposure
  NoWind,                                 !- Wind Exposure
  ,                                       !- View Factor to Ground
  ,                                       !- Number of Vertices
  -25, 25, 3.8,                           !- X,Y,Z Vertex 1 {m}
  -25, 25, 0,                             !- X,Y,Z Vertex 2 {m}
  0, 0, 0,                                !- X,Y,Z Vertex 3 {m}
  0, 0, 3.8;                              !- X,Y,Z Vertex 4 {m}

OS:Surface,
  {f9f5194f-db27-4cd9-81e9-32bf42b3f8a4}, !- Handle
  Surface 12,                             !- Name
  RoofCeiling,                            !- Surface Type
  ,                                       !- Construction Name
  {d2800436-4b6f-4fe1-bc0a-476fd805468a}, !- Space Name
  Surface,                                !- Outside Boundary Condition
  {22eb3f2d-757a-4c0c-8d33-2b5570b62989}, !- Outside Boundary Condition Object
  NoSun,                                  !- Sun Exposure
  NoWind,                                 !- Wind Exposure
  ,                                       !- View Factor to Ground
  ,                                       !- Number of Vertices
  0, 0, 3.8,                              !- X,Y,Z Vertex 1 {m}
  50, 0, 3.8,                             !- X,Y,Z Vertex 2 {m}
  75, 25, 3.8,                            !- X,Y,Z Vertex 3 {m}
  -25, 25, 3.8;                           !- X,Y,Z Vertex 4 {m}

OS:Space,
  {41cb52b6-4f3e-418b-88ee-9d6658fbd077}, !- Handle
  Warehouse - med/blk - refrigerated-Space Function, !- Name
  {a35e17c4-7d5e-4327-8810-6c961988a2c3}, !- Space Type Name
  ,                                       !- Default Construction Set Name
  ,                                       !- Default Schedule Set Name
  -0,                                     !- Direction of Relative North {deg}
  75,                                     !- X Origin {m}
  25,                                     !- Y Origin {m}
  0,                                      !- Z Origin {m}
  {803e6bab-7c14-4289-afb1-44e20485520b}, !- Building Story Name
  {4c546698-7370-4111-bce2-ee1e0e3e1d35}; !- Thermal Zone Name

OS:Surface,
  {bec628f9-da9d-447e-892f-e689cbefa2f1}, !- Handle
  Surface 13,                             !- Name
  Floor,                                  !- Surface Type
  ,                                       !- Construction Name
  {41cb52b6-4f3e-418b-88ee-9d6658fbd077}, !- Space Name
  Ground,                                 !- Outside Boundary Condition
  ,                                       !- Outside Boundary Condition Object
  NoSun,                                  !- Sun Exposure
  NoWind,                                 !- Wind Exposure
  ,                                       !- View Factor to Ground
  ,                                       !- Number of Vertices
  25, 75, 0,                              !- X,Y,Z Vertex 1 {m}
  25, -25, 0,                             !- X,Y,Z Vertex 2 {m}
  0, 0, 0,                                !- X,Y,Z Vertex 3 {m}
  0, 50, 0;                               !- X,Y,Z Vertex 4 {m}

OS:Surface,
  {41f2387b-4cbc-4f8a-bb78-3c993dbabd06}, !- Handle
  Surface 14,                             !- Name
  Wall,                                   !- Surface Type
  ,                                       !- Construction Name
  {41cb52b6-4f3e-418b-88ee-9d6658fbd077}, !- Space Name
  Ground,                                 !- Outside Boundary Condition
  ,                                       !- Outside Boundary Condition Object
  NoSun,                                  !- Sun Exposure
  NoWind,                                 !- Wind Exposure
  ,                                       !- View Factor to Ground
  ,                                       !- Number of Vertices
  25, -25, 3.8,                           !- X,Y,Z Vertex 1 {m}
  25, -25, 0,                             !- X,Y,Z Vertex 2 {m}
  25, 75, 0,                              !- X,Y,Z Vertex 3 {m}
  25, 75, 3.8;                            !- X,Y,Z Vertex 4 {m}

OS:Surface,
  {00e18278-9fcd-4dd4-be8c-d9217a9e9ffd}, !- Handle
  Surface 15,                             !- Name
  Wall,                                   !- Surface Type
  ,                                       !- Construction Name
  {41cb52b6-4f3e-418b-88ee-9d6658fbd077}, !- Space Name
  Surface,                                !- Outside Boundary Condition
  {ed9dca2e-cd1e-4c60-946c-cffe0a2e9087}, !- Outside Boundary Condition Object
  NoSun,                                  !- Sun Exposure
  NoWind,                                 !- Wind Exposure
  ,                                       !- View Factor to Ground
  ,                                       !- Number of Vertices
  0, 0, 3.8,                              !- X,Y,Z Vertex 1 {m}
  0, 0, 0,                                !- X,Y,Z Vertex 2 {m}
  25, -25, 0,                             !- X,Y,Z Vertex 3 {m}
  25, -25, 3.8;                           !- X,Y,Z Vertex 4 {m}

OS:Surface,
  {5b23eeb2-8fa7-4647-928a-674c1fc99e7c}, !- Handle
  Surface 16,                             !- Name
  Wall,                                   !- Surface Type
  ,                                       !- Construction Name
  {41cb52b6-4f3e-418b-88ee-9d6658fbd077}, !- Space Name
  Surface,                                !- Outside Boundary Condition
  {4a57edbe-1239-4ca0-afe8-166490f5c745}, !- Outside Boundary Condition Object
  NoSun,                                  !- Sun Exposure
  NoWind,                                 !- Wind Exposure
  ,                                       !- View Factor to Ground
  ,                                       !- Number of Vertices
  0, 50, 3.8,                             !- X,Y,Z Vertex 1 {m}
  0, 50, 0,                               !- X,Y,Z Vertex 2 {m}
  0, 0, 0,                                !- X,Y,Z Vertex 3 {m}
  0, 0, 3.8;                              !- X,Y,Z Vertex 4 {m}

OS:Surface,
  {cdeb0eee-b2ad-4f32-b10e-e61aad7f354e}, !- Handle
  Surface 17,                             !- Name
  Wall,                                   !- Surface Type
  ,                                       !- Construction Name
  {41cb52b6-4f3e-418b-88ee-9d6658fbd077}, !- Space Name
  Surface,                                !- Outside Boundary Condition
  {2a2e45ca-1f98-4548-ab20-ec937153c7e2}, !- Outside Boundary Condition Object
  NoSun,                                  !- Sun Exposure
  NoWind,                                 !- Wind Exposure
  ,                                       !- View Factor to Ground
  ,                                       !- Number of Vertices
  25, 75, 3.8,                            !- X,Y,Z Vertex 1 {m}
  25, 75, 0,                              !- X,Y,Z Vertex 2 {m}
  0, 50, 0,                               !- X,Y,Z Vertex 3 {m}
  0, 50, 3.8;                             !- X,Y,Z Vertex 4 {m}

OS:Surface,
  {94f1dda0-a412-4a3c-b6b3-f2502a2797fc}, !- Handle
  Surface 18,                             !- Name
  RoofCeiling,                            !- Surface Type
  ,                                       !- Construction Name
  {41cb52b6-4f3e-418b-88ee-9d6658fbd077}, !- Space Name
  Surface,                                !- Outside Boundary Condition
  {118e177f-fd8b-4c2a-92b7-845101140477}, !- Outside Boundary Condition Object
  NoSun,                                  !- Sun Exposure
  NoWind,                                 !- Wind Exposure
  ,                                       !- View Factor to Ground
  ,                                       !- Number of Vertices
  0, 50, 3.8,                             !- X,Y,Z Vertex 1 {m}
  0, 0, 3.8,                              !- X,Y,Z Vertex 2 {m}
  25, -25, 3.8,                           !- X,Y,Z Vertex 3 {m}
  25, 75, 3.8;                            !- X,Y,Z Vertex 4 {m}

OS:Space,
  {d65a65fe-e6fc-42a7-a771-608a289e6fba}, !- Handle
  Stairway-sch-C-Space Function,          !- Name
  {9e2190f0-e296-42ff-8f4c-3c031e07b41f}, !- Space Type Name
  ,                                       !- Default Construction Set Name
  ,                                       !- Default Schedule Set Name
  -0,                                     !- Direction of Relative North {deg}
  0,                                      !- X Origin {m}
  0,                                      !- Y Origin {m}
  0,                                      !- Z Origin {m}
  {803e6bab-7c14-4289-afb1-44e20485520b}, !- Building Story Name
  {73cbac92-82f5-4cc4-88f7-354b5efca703}; !- Thermal Zone Name

OS:Surface,
  {a0149a97-d443-46d0-af48-8a5a18c5e05e}, !- Handle
  Surface 19,                             !- Name
  Floor,                                  !- Surface Type
  ,                                       !- Construction Name
  {d65a65fe-e6fc-42a7-a771-608a289e6fba}, !- Space Name
  Ground,                                 !- Outside Boundary Condition
  ,                                       !- Outside Boundary Condition Object
  NoSun,                                  !- Sun Exposure
  NoWind,                                 !- Wind Exposure
  ,                                       !- View Factor to Ground
  ,                                       !- Number of Vertices
  100, 0, 0,                              !- X,Y,Z Vertex 1 {m}
  0, 0, 0,                                !- X,Y,Z Vertex 2 {m}
  25, 25, 0,                              !- X,Y,Z Vertex 3 {m}
  75, 25, 0;                              !- X,Y,Z Vertex 4 {m}

OS:Surface,
  {c16a76d0-5651-4f0a-9524-805550f43609}, !- Handle
  Surface 20,                             !- Name
  Wall,                                   !- Surface Type
  ,                                       !- Construction Name
  {d65a65fe-e6fc-42a7-a771-608a289e6fba}, !- Space Name
  Ground,                                 !- Outside Boundary Condition
  ,                                       !- Outside Boundary Condition Object
  NoSun,                                  !- Sun Exposure
  NoWind,                                 !- Wind Exposure
  ,                                       !- View Factor to Ground
  ,                                       !- Number of Vertices
  0, 0, 3.8,                              !- X,Y,Z Vertex 1 {m}
  0, 0, 0,                                !- X,Y,Z Vertex 2 {m}
  100, 0, 0,                              !- X,Y,Z Vertex 3 {m}
  100, 0, 3.8;                            !- X,Y,Z Vertex 4 {m}

OS:Surface,
  {8abb2d0b-b684-4d1c-9ccb-2841b149d8cb}, !- Handle
  Surface 21,                             !- Name
  Wall,                                   !- Surface Type
  ,                                       !- Construction Name
  {d65a65fe-e6fc-42a7-a771-608a289e6fba}, !- Space Name
  Surface,                                !- Outside Boundary Condition
  {f1a7d817-e71c-49cf-a268-152f11c12b14}, !- Outside Boundary Condition Object
  NoSun,                                  !- Sun Exposure
  NoWind,                                 !- Wind Exposure
  ,                                       !- View Factor to Ground
  ,                                       !- Number of Vertices
  25, 25, 3.8,                            !- X,Y,Z Vertex 1 {m}
  25, 25, 0,                              !- X,Y,Z Vertex 2 {m}
  0, 0, 0,                                !- X,Y,Z Vertex 3 {m}
  0, 0, 3.8;                              !- X,Y,Z Vertex 4 {m}

OS:Surface,
  {a1acb2be-1061-47da-8565-95a629c53a45}, !- Handle
  Surface 22,                             !- Name
  Wall,                                   !- Surface Type
  ,                                       !- Construction Name
  {d65a65fe-e6fc-42a7-a771-608a289e6fba}, !- Space Name
  Surface,                                !- Outside Boundary Condition
  {f2b06ccf-2287-4d22-8b4f-0096b314c28d}, !- Outside Boundary Condition Object
  NoSun,                                  !- Sun Exposure
  NoWind,                                 !- Wind Exposure
  ,                                       !- View Factor to Ground
  ,                                       !- Number of Vertices
  75, 25, 3.8,                            !- X,Y,Z Vertex 1 {m}
  75, 25, 0,                              !- X,Y,Z Vertex 2 {m}
  25, 25, 0,                              !- X,Y,Z Vertex 3 {m}
  25, 25, 3.8;                            !- X,Y,Z Vertex 4 {m}

OS:Surface,
  {ed9dca2e-cd1e-4c60-946c-cffe0a2e9087}, !- Handle
  Surface 23,                             !- Name
  Wall,                                   !- Surface Type
  ,                                       !- Construction Name
  {d65a65fe-e6fc-42a7-a771-608a289e6fba}, !- Space Name
  Surface,                                !- Outside Boundary Condition
  {00e18278-9fcd-4dd4-be8c-d9217a9e9ffd}, !- Outside Boundary Condition Object
  NoSun,                                  !- Sun Exposure
  NoWind,                                 !- Wind Exposure
  ,                                       !- View Factor to Ground
  ,                                       !- Number of Vertices
  100, 0, 3.8,                            !- X,Y,Z Vertex 1 {m}
  100, 0, 0,                              !- X,Y,Z Vertex 2 {m}
  75, 25, 0,                              !- X,Y,Z Vertex 3 {m}
  75, 25, 3.8;                            !- X,Y,Z Vertex 4 {m}

OS:Surface,
  {f11f67c4-fc49-4da9-a9ba-a92e0db8958b}, !- Handle
  Surface 24,                             !- Name
  RoofCeiling,                            !- Surface Type
  ,                                       !- Construction Name
  {d65a65fe-e6fc-42a7-a771-608a289e6fba}, !- Space Name
  Surface,                                !- Outside Boundary Condition
  {a3fb89d1-3f51-4039-a2bd-acc7fe1f1cfb}, !- Outside Boundary Condition Object
  NoSun,                                  !- Sun Exposure
  NoWind,                                 !- Wind Exposure
  ,                                       !- View Factor to Ground
  ,                                       !- Number of Vertices
  75, 25, 3.8,                            !- X,Y,Z Vertex 1 {m}
  25, 25, 3.8,                            !- X,Y,Z Vertex 2 {m}
  0, 0, 3.8,                              !- X,Y,Z Vertex 3 {m}
  100, 0, 3.8;                            !- X,Y,Z Vertex 4 {m}

OS:Space,
  {e8113a5b-531a-438a-8c06-7fe6df4e5efb}, !- Handle
  Stairway-sch-G-Space Function,          !- Name
  {9e2190f0-e296-42ff-8f4c-3c031e07b41f}, !- Space Type Name
  ,                                       !- Default Construction Set Name
  ,                                       !- Default Schedule Set Name
  -0,                                     !- Direction of Relative North {deg}
  25,                                     !- X Origin {m}
  25,                                     !- Y Origin {m}
  0,                                      !- Z Origin {m}
  {803e6bab-7c14-4289-afb1-44e20485520b}, !- Building Story Name
  {571164d9-6b45-41a1-a851-db6944fb568d}; !- Thermal Zone Name

OS:Surface,
  {d1abb347-d598-4b98-a967-4035a65dae12}, !- Handle
  Surface 25,                             !- Name
  Floor,                                  !- Surface Type
  ,                                       !- Construction Name
  {e8113a5b-531a-438a-8c06-7fe6df4e5efb}, !- Space Name
  Ground,                                 !- Outside Boundary Condition
  ,                                       !- Outside Boundary Condition Object
  NoSun,                                  !- Sun Exposure
  NoWind,                                 !- Wind Exposure
  ,                                       !- View Factor to Ground
  ,                                       !- Number of Vertices
  0, 0, 0,                                !- X,Y,Z Vertex 1 {m}
  0, 50, 0,                               !- X,Y,Z Vertex 2 {m}
  50, 50, 0,                              !- X,Y,Z Vertex 3 {m}
  50, 0, 0;                               !- X,Y,Z Vertex 4 {m}

OS:Surface,
  {d4e89396-c93a-4ebe-937e-b4a6ecf66420}, !- Handle
  Surface 26,                             !- Name
  Wall,                                   !- Surface Type
  ,                                       !- Construction Name
  {e8113a5b-531a-438a-8c06-7fe6df4e5efb}, !- Space Name
  Surface,                                !- Outside Boundary Condition
  {95be55aa-829c-4fce-a23a-1536f25a3950}, !- Outside Boundary Condition Object
  NoSun,                                  !- Sun Exposure
  NoWind,                                 !- Wind Exposure
  ,                                       !- View Factor to Ground
  ,                                       !- Number of Vertices
  0, 50, 3.8,                             !- X,Y,Z Vertex 1 {m}
  0, 50, 0,                               !- X,Y,Z Vertex 2 {m}
  0, 0, 0,                                !- X,Y,Z Vertex 3 {m}
  0, 0, 3.8;                              !- X,Y,Z Vertex 4 {m}

OS:Surface,
  {28677611-330e-4828-b1e1-1a9944a608d8}, !- Handle
  Surface 27,                             !- Name
  Wall,                                   !- Surface Type
  ,                                       !- Construction Name
  {e8113a5b-531a-438a-8c06-7fe6df4e5efb}, !- Space Name
  Surface,                                !- Outside Boundary Condition
  {ce5e80f3-0cce-4744-b057-1f5eb76b2aab}, !- Outside Boundary Condition Object