
OS:Version,
  {71b9f858-c6fd-407d-9eb5-4d849b30dc49}, !- Handle
  2.6.0;                                  !- Version Identifier

OS:Building,
  {b5ea94e2-de29-41f4-b38f-ca585a41f14b}, !- Handle
  Building 1,                             !- Name
  ,                                       !- Building Sector Type
  ,                                       !- North Axis {deg}
  ,                                       !- Nominal Floor to Floor Height {m}
  ,                                       !- Space Type Name
  {b1c8a1db-ed88-4dbd-a7de-c21d235f4f62}, !- Default Construction Set Name
  ,                                       !- Default Schedule Set Name
  1,                                      !- Standards Number of Stories
  1,                                      !- Standards Number of Above Ground Stories
  NECB2015_unknown;                       !- Standards Building Type

OS:BuildingStory,
  {3d4e6cce-2077-462a-8cad-cf7e9ffad38e}, !- Handle
  Story 1,                                !- Name
  0,                                      !- Nominal Z Coordinate {m}
  3.8,                                    !- Nominal Floor to Floor Height {m}
  ,                                       !- Default Construction Set Name
  ,                                       !- Default Schedule Set Name
  ;                                       !- Group Rendering Name

OS:Space,
  {5b404cf5-6196-4507-a865-746b5ee15da1}, !- Handle
  Laboratory - classrooms-Space Function, !- Name
  {8077c770-c3eb-4df9-adef-463ffdeedc03}, !- Space Type Name
  ,                                       !- Default Construction Set Name
  ,                                       !- Default Schedule Set Name
  -0,                                     !- Direction of Relative North {deg}
  0,                                      !- X Origin {m}
  0,                                      !- Y Origin {m}
  0,                                      !- Z Origin {m}
  {3d4e6cce-2077-462a-8cad-cf7e9ffad38e}, !- Building Story Name
  {7a0b297d-434a-45e0-8a87-1b58e3e212c2}; !- Thermal Zone Name

OS:Surface,
  {e39973cf-6017-41ac-b87b-8d5137a94271}, !- Handle
  Surface 1,                              !- Name
  Floor,                                  !- Surface Type
  ,                                       !- Construction Name
  {5b404cf5-6196-4507-a865-746b5ee15da1}, !- Space Name
  Ground,                                 !- Outside Boundary Condition
  ,                                       !- Outside Boundary Condition Object
  NoSun,                                  !- Sun Exposure
  NoWind,                                 !- Wind Exposure
  ,                                       !- View Factor to Ground
  ,                                       !- Number of Vertices
  0, 0, 0,                                !- X,Y,Z Vertex 1 {m}
  0, 100, 0,                              !- X,Y,Z Vertex 2 {m}
  25, 75, 0,                              !- X,Y,Z Vertex 3 {m}
  25, 25, 0;                              !- X,Y,Z Vertex 4 {m}

OS:Surface,
  {73fd20a8-4f1a-4609-aa00-48479726bb8f}, !- Handle
  Surface 2,                              !- Name
  Wall,                                   !- Surface Type
  ,                                       !- Construction Name
  {5b404cf5-6196-4507-a865-746b5ee15da1}, !- Space Name
  Ground,                                 !- Outside Boundary Condition
  ,                                       !- Outside Boundary Condition Object
  NoSun,                                  !- Sun Exposure
  NoWind,                                 !- Wind Exposure
  ,                                       !- View Factor to Ground
  ,                                       !- Number of Vertices
  0, 100, 3.8,                            !- X,Y,Z Vertex 1 {m}
  0, 100, 0,                              !- X,Y,Z Vertex 2 {m}
  0, 0, 0,                                !- X,Y,Z Vertex 3 {m}
  0, 0, 3.8;                              !- X,Y,Z Vertex 4 {m}

OS:Surface,
  {d1aa17ca-0988-4c5f-8928-2b2b8075555c}, !- Handle
  Surface 3,                              !- Name
  Wall,                                   !- Surface Type
  ,                                       !- Construction Name
  {5b404cf5-6196-4507-a865-746b5ee15da1}, !- Space Name
  Surface,                                !- Outside Boundary Condition
  {bee28402-51d9-4c54-b62c-6c04ec78e3a3}, !- Outside Boundary Condition Object
  NoSun,                                  !- Sun Exposure
  NoWind,                                 !- Wind Exposure
  ,                                       !- View Factor to Ground
  ,                                       !- Number of Vertices
  25, 75, 3.8,                            !- X,Y,Z Vertex 1 {m}
  25, 75, 0,                              !- X,Y,Z Vertex 2 {m}
  0, 100, 0,                              !- X,Y,Z Vertex 3 {m}
  0, 100, 3.8;                            !- X,Y,Z Vertex 4 {m}

OS:Surface,
  {13348398-b679-4552-a6e4-82734d58b4a1}, !- Handle
  Surface 4,                              !- Name
  Wall,                                   !- Surface Type
  ,                                       !- Construction Name
  {5b404cf5-6196-4507-a865-746b5ee15da1}, !- Space Name
  Surface,                                !- Outside Boundary Condition
  {a7404e8b-5232-4646-a15a-9c0d887191c1}, !- Outside Boundary Condition Object
  NoSun,                                  !- Sun Exposure
  NoWind,                                 !- Wind Exposure
  ,                                       !- View Factor to Ground
  ,                                       !- Number of Vertices
  25, 25, 3.8,                            !- X,Y,Z Vertex 1 {m}
  25, 25, 0,                              !- X,Y,Z Vertex 2 {m}
  25, 75, 0,                              !- X,Y,Z Vertex 3 {m}
  25, 75, 3.8;                            !- X,Y,Z Vertex 4 {m}

OS:Surface,
  {97356134-a6ba-41da-83ab-83e41b01336c}, !- Handle
  Surface 5,                              !- Name
  Wall,                                   !- Surface Type
  ,                                       !- Construction Name
  {5b404cf5-6196-4507-a865-746b5ee15da1}, !- Space Name
  Surface,                                !- Outside Boundary Condition
  {f4f2ead9-e879-4ff8-809d-d3b5a3a606e4}, !- Outside Boundary Condition Object
  NoSun,                                  !- Sun Exposure
  NoWind,                                 !- Wind Exposure
  ,                                       !- View Factor to Ground
  ,                                       !- Number of Vertices
  0, 0, 3.8,                              !- X,Y,Z Vertex 1 {m}
  0, 0, 0,                                !- X,Y,Z Vertex 2 {m}
  25, 25, 0,                              !- X,Y,Z Vertex 3 {m}
  25, 25, 3.8;                            !- X,Y,Z Vertex 4 {m}

OS:Surface,
  {d435835b-984a-4458-b86e-ff993c1427f8}, !- Handle
  Surface 6,                              !- Name
  RoofCeiling,                            !- Surface Type
  ,                                       !- Construction Name
  {5b404cf5-6196-4507-a865-746b5ee15da1}, !- Space Name
  Ground,                                 !- Outside Boundary Condition
  ,                                       !- Outside Boundary Condition Object
  NoSun,                                  !- Sun Exposure
  NoWind,                                 !- Wind Exposure
  ,                                       !- View Factor to Ground
  ,                                       !- Number of Vertices
  25, 25, 3.8,                            !- X,Y,Z Vertex 1 {m}
  25, 75, 3.8,                            !- X,Y,Z Vertex 2 {m}
  0, 100, 3.8,                            !- X,Y,Z Vertex 3 {m}
  0, 0, 3.8;                              !- X,Y,Z Vertex 4 {m}

OS:Space,
  {8818da4d-0bb2-4a6c-8586-456efe0cd912}, !- Handle
  Guest room-Space Function,              !- Name
  {a2b94a93-53e6-4e87-9980-ae62e466fc37}, !- Space Type Name
  ,                                       !- Default Construction Set Name
  ,                                       !- Default Schedule Set Name
  -0,                                     !- Direction of Relative North {deg}
  25,                                     !- X Origin {m}
  75,                                     !- Y Origin {m}
  0,                                      !- Z Origin {m}
  {3d4e6cce-2077-462a-8cad-cf7e9ffad38e}, !- Building Story Name
  {01f542fb-7778-4c20-bb19-b1911fe5aeca}; !- Thermal Zone Name

OS:Surface,
  {7c8be959-1f2e-416b-aa33-3655e3c0a6ed}, !- Handle
  Surface 7,                              !- Name
  Floor,                                  !- Surface Type
  ,                                       !- Construction Name
  {8818da4d-0bb2-4a6c-8586-456efe0cd912}, !- Space Name
  Ground,                                 !- Outside Boundary Condition
  ,                                       !- Outside Boundary Condition Object
  NoSun,                                  !- Sun Exposure
  NoWind,                                 !- Wind Exposure
  ,                                       !- View Factor to Ground
  ,                                       !- Number of Vertices
  -25, 25, 0,                             !- X,Y,Z Vertex 1 {m}
  75, 25, 0,                              !- X,Y,Z Vertex 2 {m}
  50, 0, 0,                               !- X,Y,Z Vertex 3 {m}
  0, 0, 0;                                !- X,Y,Z Vertex 4 {m}

OS:Surface,
  {dbf1f0b9-7c23-4734-9396-92dd86a55f82}, !- Handle
  Surface 8,                              !- Name
  Wall,                                   !- Surface Type
  ,                                       !- Construction Name
  {8818da4d-0bb2-4a6c-8586-456efe0cd912}, !- Space Name
  Ground,                                 !- Outside Boundary Condition
  ,                                       !- Outside Boundary Condition Object
  NoSun,                                  !- Sun Exposure
  NoWind,                                 !- Wind Exposure
  ,                                       !- View Factor to Ground
  ,                                       !- Number of Vertices
  75, 25, 3.8,                            !- X,Y,Z Vertex 1 {m}
  75, 25, 0,                              !- X,Y,Z Vertex 2 {m}
  -25, 25, 0,                             !- X,Y,Z Vertex 3 {m}
  -25, 25, 3.8;                           !- X,Y,Z Vertex 4 {m}

OS:Surface,
  {40ace300-2f93-4341-b8f4-95604f9dff40}, !- Handle
  Surface 9,                              !- Name
  Wall,                                   !- Surface Type
  ,                                       !- Construction Name
  {8818da4d-0bb2-4a6c-8586-456efe0cd912}, !- Space Name
  Surface,                                !- Outside Boundary Condition
  {256b61bc-4464-406e-b650-fda48f89d9dc}, !- Outside Boundary Condition Object
  NoSun,                                  !- Sun Exposure
  NoWind,                                 !- Wind Exposure
  ,                                       !- View Factor to Ground
  ,                                       !- Number of Vertices
  50, 0, 3.8,                             !- X,Y,Z Vertex 1 {m}
  50, 0, 0,                               !- X,Y,Z Vertex 2 {m}
  75, 25, 0,                              !- X,Y,Z Vertex 3 {m}
  75, 25, 3.8;                            !- X,Y,Z Vertex 4 {m}

OS:Surface,
  {b6000738-ece2-4e14-9452-277b7138bf58}, !- Handle
  Surface 10,                             !- Name
  Wall,                                   !- Surface Type
  ,                                       !- Construction Name
  {8818da4d-0bb2-4a6c-8586-456efe0cd912}, !- Space Name
  Surface,                                !- Outside Boundary Condition
  {ec83ec71-6bba-43b3-8b0c-4224d49a2407}, !- Outside Boundary Condition Object
  NoSun,                                  !- Sun Exposure
  NoWind,                                 !- Wind Exposure
  ,                                       !- View Factor to Ground
  ,                                       !- Number of Vertices
  0, 0, 3.8,                              !- X,Y,Z Vertex 1 {m}
  0, 0, 0,                                !- X,Y,Z Vertex 2 {m}
  50, 0, 0,                               !- X,Y,Z Vertex 3 {m}
  50, 0, 3.8;                             !- X,Y,Z Vertex 4 {m}

OS:Surface,
  {bee28402-51d9-4c54-b62c-6c04ec78e3a3}, !- Handle
  Surface 11,                             !- Name
  Wall,                                   !- Surface Type
  ,                                       !- Construction Name
  {8818da4d-0bb2-4a6c-8586-456efe0cd912}, !- Space Name
  Surface,                                !- Outside Boundary Condition
  {d1aa17ca-0988-4c5f-8928-2b2b8075555c}, !- Outside Boundary Condition Object
  NoSun,                                  !- Sun Exposure
  NoWind,                                 !- Wind Exposure
  ,                                       !- View Factor to Ground
  ,                                       !- Number of Vertices
  -25, 25, 3.8,                           !- X,Y,Z Vertex 1 {m}
  -25, 25, 0,                             !- X,Y,Z Vertex 2 {m}
  0, 0, 0,                                !- X,Y,Z Vertex 3 {m}
  0, 0, 3.8;                              !- X,Y,Z Vertex 4 {m}

OS:Surface,
  {8ed89ba9-19a1-4946-8b82-da4a1cc646bc}, !- Handle
  Surface 12,                             !- Name
  RoofCeiling,                            !- Surface Type
  ,                                       !- Construction Name
  {8818da4d-0bb2-4a6c-8586-456efe0cd912}, !- Space Name
  Ground,                                 !- Outside Boundary Condition
  ,                                       !- Outside Boundary Condition Object
  NoSun,                                  !- Sun Exposure
  NoWind,                                 !- Wind Exposure
  ,                                       !- View Factor to Ground
  ,                                       !- Number of Vertices
  0, 0, 3.8,                              !- X,Y,Z Vertex 1 {m}
  50, 0, 3.8,                             !- X,Y,Z Vertex 2 {m}
  75, 25, 3.8,                            !- X,Y,Z Vertex 3 {m}
  -25, 25, 3.8;                           !- X,Y,Z Vertex 4 {m}

OS:Space,
  {93a073e9-2b45-4ef1-96e5-106084651529}, !- Handle
  Food preparation area-Space Function,   !- Name
  {e1ded11a-8762-4f09-bb12-b8d7ea98a05d}, !- Space Type Name
  ,                                       !- Default Construction Set Name
  ,                                       !- Default Schedule Set Name
  -0,                                     !- Direction of Relative North {deg}
  75,                                     !- X Origin {m}
  25,                                     !- Y Origin {m}
  0,                                      !- Z Origin {m}
  {3d4e6cce-2077-462a-8cad-cf7e9ffad38e}, !- Building Story Name
  {80c3f5ce-4695-4b2c-9839-cd97aef4af3a}; !- Thermal Zone Name

OS:Surface,
  {11332a9e-a63d-4388-b450-8592a8c24000}, !- Handle
  Surface 13,                             !- Name
  Floor,                                  !- Surface Type
  ,                                       !- Construction Name
  {93a073e9-2b45-4ef1-96e5-106084651529}, !- Space Name
  Ground,                                 !- Outside Boundary Condition
  ,                                       !- Outside Boundary Condition Object
  NoSun,                                  !- Sun Exposure
  NoWind,                                 !- Wind Exposure
  ,                                       !- View Factor to Ground
  ,                                       !- Number of Vertices
  25, 75, 0,                              !- X,Y,Z Vertex 1 {m}
  25, -25, 0,                             !- X,Y,Z Vertex 2 {m}
  0, 0, 0,                                !- X,Y,Z Vertex 3 {m}
  0, 50, 0;                               !- X,Y,Z Vertex 4 {m}

OS:Surface,
  {6a28aa84-44b5-40ef-a3b5-f9b3352243b1}, !- Handle
  Surface 14,                             !- Name
  Wall,                                   !- Surface Type
  ,                                       !- Construction Name
  {93a073e9-2b45-4ef1-96e5-106084651529}, !- Space Name
  Ground,                                 !- Outside Boundary Condition
  ,                                       !- Outside Boundary Condition Object
  NoSun,                                  !- Sun Exposure
  NoWind,                                 !- Wind Exposure
  ,                                       !- View Factor to Ground
  ,                                       !- Number of Vertices
  25, -25, 3.8,                           !- X,Y,Z Vertex 1 {m}
  25, -25, 0,                             !- X,Y,Z Vertex 2 {m}
  25, 75, 0,                              !- X,Y,Z Vertex 3 {m}
  25, 75, 3.8;                            !- X,Y,Z Vertex 4 {m}

OS:Surface,
  {40fcd775-f783-46c0-bb9b-9317a840426f}, !- Handle
  Surface 15,                             !- Name
  Wall,                                   !- Surface Type
  ,                                       !- Construction Name
  {93a073e9-2b45-4ef1-96e5-106084651529}, !- Space Name
  Surface,                                !- Outside Boundary Condition
  {d537893c-34df-4655-ae94-24b1347f8e06}, !- Outside Boundary Condition Object
  NoSun,                                  !- Sun Exposure
  NoWind,                                 !- Wind Exposure
  ,                                       !- View Factor to Ground
  ,                                       !- Number of Vertices
  0, 0, 3.8,                              !- X,Y,Z Vertex 1 {m}
  0, 0, 0,                                !- X,Y,Z Vertex 2 {m}
  25, -25, 0,                             !- X,Y,Z Vertex 3 {m}
  25, -25, 3.8;                           !- X,Y,Z Vertex 4 {m}

OS:Surface,
  {40f95245-1c69-47d0-8505-e3364d74fd64}, !- Handle
  Surface 16,                             !- Name
  Wall,                                   !- Surface Type
  ,                                       !- Construction Name
  {93a073e9-2b45-4ef1-96e5-106084651529}, !- Space Name
  Surface,                                !- Outside Boundary Condition
  {db476683-d368-4c31-962f-26ac35676bfd}, !- Outside Boundary Condition Object
  NoSun,                                  !- Sun Exposure
  NoWind,                                 !- Wind Exposure
  ,                                       !- View Factor to Ground
  ,                                       !- Number of Vertices
  0, 50, 3.8,                             !- X,Y,Z Vertex 1 {m}
  0, 50, 0,                               !- X,Y,Z Vertex 2 {m}
  0, 0, 0,                                !- X,Y,Z Vertex 3 {m}
  0, 0, 3.8;                              !- X,Y,Z Vertex 4 {m}

OS:Surface,
  {256b61bc-4464-406e-b650-fda48f89d9dc}, !- Handle
  Surface 17,                             !- Name
  Wall,                                   !- Surface Type
  ,                                       !- Construction Name
  {93a073e9-2b45-4ef1-96e5-106084651529}, !- Space Name
  Surface,                                !- Outside Boundary Condition
  {40ace300-2f93-4341-b8f4-95604f9dff40}, !- Outside Boundary Condition Object
  NoSun,                                  !- Sun Exposure
  NoWind,                                 !- Wind Exposure
  ,                                       !- View Factor to Ground
  ,                                       !- Number of Vertices
  25, 75, 3.8,                            !- X,Y,Z Vertex 1 {m}
  25, 75, 0,                              !- X,Y,Z Vertex 2 {m}
  0, 50, 0,                               !- X,Y,Z Vertex 3 {m}
  0, 50, 3.8;                             !- X,Y,Z Vertex 4 {m}

OS:Surface,
  {6027baa1-461b-473d-b773-91854bbb7994}, !- Handle
  Surface 18,                             !- Name
  RoofCeiling,                            !- Surface Type
  ,                                       !- Construction Name
  {93a073e9-2b45-4ef1-96e5-106084651529}, !- Space Name
  Ground,                                 !- Outside Boundary Condition
  ,                                       !- Outside Boundary Condition Object
  NoSun,                                  !- Sun Exposure
  NoWind,                                 !- Wind Exposure
  ,                                       !- View Factor to Ground
  ,                                       !- Number of Vertices
  0, 50, 3.8,                             !- X,Y,Z Vertex 1 {m}
  0, 0, 3.8,                              !- X,Y,Z Vertex 2 {m}
  25, -25, 3.8,                           !- X,Y,Z Vertex 3 {m}
  25, 75, 3.8;                            !- X,Y,Z Vertex 4 {m}

OS:Space,
  {3f18e4c7-af7c-4a4d-8786-3f0a394bc127}, !- Handle
  Electrical/Mechanical room-sch-D-Space Function, !- Name
  {9929f930-d533-41f9-a776-4faa30fa37ae}, !- Space Type Name
  ,                                       !- Default Construction Set Name
  ,                                       !- Default Schedule Set Name
  -0,                                     !- Direction of Relative North {deg}
  0,                                      !- X Origin {m}
  0,                                      !- Y Origin {m}
  0,                                      !- Z Origin {m}
  {3d4e6cce-2077-462a-8cad-cf7e9ffad38e}, !- Building Story Name
  {29e14ae4-f064-4bd1-b13a-c5e7774bb647}; !- Thermal Zone Name

OS:Surface,
  {ea834e14-146b-4ede-b6f5-734bfdba5164}, !- Handle
  Surface 19,                             !- Name
  Floor,                                  !- Surface Type
  ,                                       !- Construction Name
  {3f18e4c7-af7c-4a4d-8786-3f0a394bc127}, !- Space Name
  Ground,                                 !- Outside Boundary Condition
  ,                                       !- Outside Boundary Condition Object
  NoSun,                                  !- Sun Exposure
  NoWind,                                 !- Wind Exposure
  ,                                       !- View Factor to Ground
  ,                                       !- Number of Vertices
  100, 0, 0,                              !- X,Y,Z Vertex 1 {m}
  0, 0, 0,                                !- X,Y,Z Vertex 2 {m}
  25, 25, 0,                              !- X,Y,Z Vertex 3 {m}
  75, 25, 0;                              !- X,Y,Z Vertex 4 {m}

OS:Surface,
  {b8e2e8a8-0cb2-49fd-9289-3f35712e5138}, !- Handle
  Surface 20,                             !- Name
  Wall,                                   !- Surface Type
  ,                                       !- Construction Name
  {3f18e4c7-af7c-4a4d-8786-3f0a394bc127}, !- Space Name
  Ground,                                 !- Outside Boundary Condition
  ,                                       !- Outside Boundary Condition Object
  NoSun,                                  !- Sun Exposure
  NoWind,                                 !- Wind Exposure
  ,                                       !- View Factor to Ground
  ,                                       !- Number of Vertices
  0, 0, 3.8,                              !- X,Y,Z Vertex 1 {m}
  0, 0, 0,                                !- X,Y,Z Vertex 2 {m}
  100, 0, 0,                              !- X,Y,Z Vertex 3 {m}
  100, 0, 3.8;                            !- X,Y,Z Vertex 4 {m}

OS:Surface,
  {f4f2ead9-e879-4ff8-809d-d3b5a3a606e4}, !- Handle
  Surface 21,                             !- Name
  Wall,                                   !- Surface Type
  ,                                       !- Construction Name
  {3f18e4c7-af7c-4a4d-8786-3f0a394bc127}, !- Space Name
  Surface,                                !- Outside Boundary Condition
  {97356134-a6ba-41da-83ab-83e41b01336c}, !- Outside Boundary Condition Object
  NoSun,                                  !- Sun Exposure
  NoWind,                                 !- Wind Exposure
  ,                                       !- View Factor to Ground
  ,                                       !- Number of Vertices
  25, 25, 3.8,                            !- X,Y,Z Vertex 1 {m}
  25, 25, 0,                              !- X,Y,Z Vertex 2 {m}
  0, 0, 0,                                !- X,Y,Z Vertex 3 {m}
  0, 0, 3.8;                              !- X,Y,Z Vertex 4 {m}

OS:Surface,
  {3d9d38f8-cab2-4461-a611-882bf2393e74}, !- Handle
  Surface 22,                             !- Name
  Wall,                                   !- Surface Type
  ,                                       !- Construction Name
  {3f18e4c7-af7c-4a4d-8786-3f0a394bc127}, !- Space Name
  Surface,                                !- Outside Boundary Condition
  {ac196829-370d-4abd-8a53-b99d1b0d01b9}, !- Outside Boundary Condition Object
  NoSun,                                  !- Sun Exposure
  NoWind,                                 !- Wind Exposure
  ,                                       !- View Factor to Ground
  ,                                       !- Number of Vertices
  75, 25, 3.8,                            !- X,Y,Z Vertex 1 {m}
  75, 25, 0,                              !- X,Y,Z Vertex 2 {m}
  25, 25, 0,                              !- X,Y,Z Vertex 3 {m}
  25, 25, 3.8;                            !- X,Y,Z Vertex 4 {m}

OS:Surface,
  {d537893c-34df-4655-ae94-24b1347f8e06}, !- Handle
  Surface 23,                             !- Name
  Wall,                                   !- Surface Type
  ,                                       !- Construction Name
  {3f18e4c7-af7c-4a4d-8786-3f0a394bc127}, !- Space Name
  Surface,                                !- Outside Boundary Condition
  {40fcd775-f783-46c0-bb9b-9317a840426f}, !- Outside Boundary Condition Object
  NoSun,                                  !- Sun Exposure
  NoWind,                                 !- Wind Exposure
  ,                                       !- View Factor to Ground
  ,                                       !- Number of Vertices
  100, 0, 3.8,                            !- X,Y,Z Vertex 1 {m}
  100, 0, 0,                              !- X,Y,Z Vertex 2 {m}
  75, 25, 0,                              !- X,Y,Z Vertex 3 {m}
  75, 25, 3.8;                            !- X,Y,Z Vertex 4 {m}

OS:Surface,
  {8909d10c-05e4-40dd-a1a4-bde83512307b}, !- Handle
  Surface 24,                             !- Name
  RoofCeiling,                            !- Surface Type
  ,                                       !- Construction Name
  {3f18e4c7-af7c-4a4d-8786-3f0a394bc127}, !- Space Name
  Ground,                                 !- Outside Boundary Condition
  ,                                       !- Outside Boundary Condition Object
  NoSun,                                  !- Sun Exposure
  NoWind,                                 !- Wind Exposure
  ,                                       !- View Factor to Ground
  ,                                       !- Number of Vertices
  75, 25, 3.8,                            !- X,Y,Z Vertex 1 {m}
  25, 25, 3.8,                            !- X,Y,Z Vertex 2 {m}
  0, 0, 3.8,                              !- X,Y,Z Vertex 3 {m}
  100, 0, 3.8;                            !- X,Y,Z Vertex 4 {m}

OS:Space,
  {374f6370-1ccc-45b8-ac72-ce7f36500f7d}, !- Handle
  Electrical/Mechanical room-sch-C-Space Function, !- Name
  {ad9df4c3-1348-4824-9e44-391fc2bf412f}, !- Space Type Name
  ,                                       !- Default Construction Set Name
  ,                                       !- Default Schedule Set Name
  -0,                                     !- Direction of Relative North {deg}
  25,                                     !- X Origin {m}
  25,                                     !- Y Origin {m}
  0,                                      !- Z Origin {m}
  {3d4e6cce-2077-462a-8cad-cf7e9ffad38e}, !- Building Story Name
  {911c1af5-a831-434d-ae8f-b85e234e7214}; !- Thermal Zone Name

OS:Surface,
  {436aed4a-5cd6-44e6-ad55-ecf0cc7b916c}, !- Handle
  Surface 25,                             !- Name
  Floor,                                  !- Surface Type
  ,                                       !- Construction Name
  {374f6370-1ccc-45b8-ac72-ce7f36500f7d}, !- Space Name
  Ground,                                 !- Outside Boundary Condition
  ,                                       !- Outside Boundary Condition Object
  NoSun,                                  !- Sun Exposure
  NoWind,                                 !- Wind Exposure
  ,                                       !- View Factor to Ground
  ,                                       !- Number of Vertices
  0, 0, 0,                                !- X,Y,Z Vertex 1 {m}
  0, 50, 0,                               !- X,Y,Z Vertex 2 {m}
  50, 50, 0,                              !- X,Y,Z Vertex 3 {m}
  50, 0, 0;                               !- X,Y,Z Vertex 4 {m}

OS:Surface,
  {a7404e8b-5232-4646-a15a-9c0d887191c1}, !- Handle
  Surface 26,                             !- Name
  Wall,                                   !- Surface Type
  ,                                       !- Construction Name
  {374f6370-1ccc-45b8-ac72-ce7f36500f7d}, !- Space Name
  Surface,                                !- Outside Boundary Condition
  {13348398-b679-4552-a6e4-82734d58b4a1}, !- Outside Boundary Condition Object
  NoSun,                                  !- Sun Exposure
  NoWind,                                 !- Wind Exposure
  ,                                       !- View Factor to Ground
  ,                                       !- Number of Vertices
  0, 50, 3.8,                             !- X,Y,Z Vertex 1 {m}
  0, 50, 0,                               !- X,Y,Z Vertex 2 {m}
  0, 0, 0,                                !- X,Y,Z Vertex 3 {m}
  0, 0, 3.8;                              !- X,Y,Z Vertex 4 {m}

OS:Surface,
  {ec83ec71-6bba-43b3-8b0c-4224d49a2407}, !- Handle
  Surface 27,                             !- Name
  Wall,                                   !- Surface Type
  ,                                       !- Construction Name
  {374f6370-1ccc-45b8-ac72-ce7f36500f7d}, !- Space Name
  Surface,                                !- Outside Boundary Condition
  {b6000738-ece2-4e14-9452-277b7138bf58}, !- Outside Boundary Condition Object