
OS:Version,
  {68039c6e-0c49-47f6-813e-bb0e6d4b0cff}, !- Handle
  2.6.0;                                  !- Version Identifier

OS:Building,
  {71539903-13ec-4f4c-856f-67b8277f79fc}, !- Handle
  Building 1,                             !- Name
  ,                                       !- Building Sector Type
  ,                                       !- North Axis {deg}
  ,                                       !- Nominal Floor to Floor Height {m}
  ,                                       !- Space Type Name
  {055d8bcd-8206-4624-b527-cbc91b5851fa}, !- Default Construction Set Name
  ,                                       !- Default Schedule Set Name
  1,                                      !- Standards Number of Stories
  1,                                      !- Standards Number of Above Ground Stories
  NECB2015_unknown;                       !- Standards Building Type

OS:BuildingStory,
  {b4bcf74f-8140-4ccf-a160-9104e9ddb91a}, !- Handle
  Story 1,                                !- Name
  0,                                      !- Nominal Z Coordinate {m}
  3.8,                                    !- Nominal Floor to Floor Height {m}
  ,                                       !- Default Construction Set Name
  ,                                       !- Default Schedule Set Name
  ;                                       !- Group Rendering Name

OS:Space,
  {6dee10df-9fe3-45a0-943a-8598bcb4e545}, !- Handle
  Convention centre exhibit space-Space Function, !- Name
  {925426ed-6043-488e-a893-c416f69aab2f}, !- Space Type Name
  ,                                       !- Default Construction Set Name
  ,                                       !- Default Schedule Set Name
  -0,                                     !- Direction of Relative North {deg}
  0,                                      !- X Origin {m}
  0,                                      !- Y Origin {m}
  0,                                      !- Z Origin {m}
  {b4bcf74f-8140-4ccf-a160-9104e9ddb91a}, !- Building Story Name
  {27a0d220-6066-4cb1-a3b3-2b56f4e71b05}; !- Thermal Zone Name

OS:Surface,
  {be0b4331-64ec-4c3a-8550-005c7381b976}, !- Handle
  Surface 1,                              !- Name
  Floor,                                  !- Surface Type
  ,                                       !- Construction Name
  {6dee10df-9fe3-45a0-943a-8598bcb4e545}, !- Space Name
  Ground,                                 !- Outside Boundary Condition
  ,                                       !- Outside Boundary Condition Object
  NoSun,                                  !- Sun Exposure
  NoWind,                                 !- Wind Exposure
  ,                                       !- View Factor to Ground
  ,                                       !- Number of Vertices
  0, 0, 0,                                !- X,Y,Z Vertex 1 {m}
  0, 100, 0,                              !- X,Y,Z Vertex 2 {m}
  25, 75, 0,                              !- X,Y,Z Vertex 3 {m}
  25, 25, 0;                              !- X,Y,Z Vertex 4 {m}

OS:Surface,
  {a947eddf-dcdc-4b88-bd86-b086b5ffc283}, !- Handle
  Surface 2,                              !- Name
  Wall,                                   !- Surface Type
  ,                                       !- Construction Name
  {6dee10df-9fe3-45a0-943a-8598bcb4e545}, !- Space Name
  Ground,                                 !- Outside Boundary Condition
  ,                                       !- Outside Boundary Condition Object
  NoSun,                                  !- Sun Exposure
  NoWind,                                 !- Wind Exposure
  ,                                       !- View Factor to Ground
  ,                                       !- Number of Vertices
  0, 100, 3.8,                            !- X,Y,Z Vertex 1 {m}
  0, 100, 0,                              !- X,Y,Z Vertex 2 {m}
  0, 0, 0,                                !- X,Y,Z Vertex 3 {m}
  0, 0, 3.8;                              !- X,Y,Z Vertex 4 {m}

OS:Surface,
  {c0e0abed-eeb8-4261-886f-4e35bbfa8cf2}, !- Handle
  Surface 3,                              !- Name
  Wall,                                   !- Surface Type
  ,                                       !- Construction Name
  {6dee10df-9fe3-45a0-943a-8598bcb4e545}, !- Space Name
  Surface,                                !- Outside Boundary Condition
  {c2cdf1b1-2317-421c-ae50-2809c925cb06}, !- Outside Boundary Condition Object
  NoSun,                                  !- Sun Exposure
  NoWind,                                 !- Wind Exposure
  ,                                       !- View Factor to Ground
  ,                                       !- Number of Vertices
  25, 75, 3.8,                            !- X,Y,Z Vertex 1 {m}
  25, 75, 0,                              !- X,Y,Z Vertex 2 {m}
  0, 100, 0,                              !- X,Y,Z Vertex 3 {m}
  0, 100, 3.8;                            !- X,Y,Z Vertex 4 {m}

OS:Surface,
  {327b919f-c8d0-4474-befd-be07e0dd5890}, !- Handle
  Surface 4,                              !- Name
  Wall,                                   !- Surface Type
  ,                                       !- Construction Name
  {6dee10df-9fe3-45a0-943a-8598bcb4e545}, !- Space Name
  Surface,                                !- Outside Boundary Condition
  {68667236-febd-4404-a57f-ded16b2455c1}, !- Outside Boundary Condition Object
  NoSun,                                  !- Sun Exposure
  NoWind,                                 !- Wind Exposure
  ,                                       !- View Factor to Ground
  ,                                       !- Number of Vertices
  25, 25, 3.8,                            !- X,Y,Z Vertex 1 {m}
  25, 25, 0,                              !- X,Y,Z Vertex 2 {m}
  25, 75, 0,                              !- X,Y,Z Vertex 3 {m}
  25, 75, 3.8;                            !- X,Y,Z Vertex 4 {m}

OS:Surface,
  {d1b97f83-939c-4cd7-8d37-f0db11d08151}, !- Handle
  Surface 5,                              !- Name
  Wall,                                   !- Surface Type
  ,                                       !- Construction Name
  {6dee10df-9fe3-45a0-943a-8598bcb4e545}, !- Space Name
  Surface,                                !- Outside Boundary Condition
  {c502b45f-9243-46bc-aeda-353689f9a139}, !- Outside Boundary Condition Object
  NoSun,                                  !- Sun Exposure
  NoWind,                                 !- Wind Exposure
  ,                                       !- View Factor to Ground
  ,                                       !- Number of Vertices
  0, 0, 3.8,                              !- X,Y,Z Vertex 1 {m}
  0, 0, 0,                                !- X,Y,Z Vertex 2 {m}
  25, 25, 0,                              !- X,Y,Z Vertex 3 {m}
  25, 25, 3.8;                            !- X,Y,Z Vertex 4 {m}

OS:Surface,
  {9278d09a-5ba5-4297-90ed-0193dd68ddb0}, !- Handle
  Surface 6,                              !- Name
  RoofCeiling,                            !- Surface Type
  ,                                       !- Construction Name
  {6dee10df-9fe3-45a0-943a-8598bcb4e545}, !- Space Name
  Ground,                                 !- Outside Boundary Condition
  ,                                       !- Outside Boundary Condition Object
  NoSun,                                  !- Sun Exposure
  NoWind,                                 !- Wind Exposure
  ,                                       !- View Factor to Ground
  ,                                       !- Number of Vertices
  25, 25, 3.8,                            !- X,Y,Z Vertex 1 {m}
  25, 75, 3.8,                            !- X,Y,Z Vertex 2 {m}
  0, 100, 3.8,                            !- X,Y,Z Vertex 3 {m}
  0, 0, 3.8;                              !- X,Y,Z Vertex 4 {m}

OS:Space,
  {4a83fdac-7bb5-4b3f-90da-5a557df75978}, !- Handle
  Workshop-Space Function,                !- Name
  {134664e1-0136-495e-8602-f2c6fd35fa25}, !- Space Type Name
  ,                                       !- Default Construction Set Name
  ,                                       !- Default Schedule Set Name
  -0,                                     !- Direction of Relative North {deg}
  25,                                     !- X Origin {m}
  75,                                     !- Y Origin {m}
  0,                                      !- Z Origin {m}
  {b4bcf74f-8140-4ccf-a160-9104e9ddb91a}, !- Building Story Name
  {30d9197d-e0c0-4b22-a133-6b9bdcdce3f7}; !- Thermal Zone Name

OS:Surface,
  {136a582b-42c8-4f76-ad76-10dcb6d17b1f}, !- Handle
  Surface 7,                              !- Name
  Floor,                                  !- Surface Type
  ,                                       !- Construction Name
  {4a83fdac-7bb5-4b3f-90da-5a557df75978}, !- Space Name
  Ground,                                 !- Outside Boundary Condition
  ,                                       !- Outside Boundary Condition Object
  NoSun,                                  !- Sun Exposure
  NoWind,                                 !- Wind Exposure
  ,                                       !- View Factor to Ground
  ,                                       !- Number of Vertices
  -25, 25, 0,                             !- X,Y,Z Vertex 1 {m}
  75, 25, 0,                              !- X,Y,Z Vertex 2 {m}
  50, 0, 0,                               !- X,Y,Z Vertex 3 {m}
  0, 0, 0;                                !- X,Y,Z Vertex 4 {m}

OS:Surface,
  {79ed7e93-44cb-4a69-a399-6d25a2ab59a2}, !- Handle
  Surface 8,                              !- Name
  Wall,                                   !- Surface Type
  ,                                       !- Construction Name
  {4a83fdac-7bb5-4b3f-90da-5a557df75978}, !- Space Name
  Ground,                                 !- Outside Boundary Condition
  ,                                       !- Outside Boundary Condition Object
  NoSun,                                  !- Sun Exposure
  NoWind,                                 !- Wind Exposure
  ,                                       !- View Factor to Ground
  ,                                       !- Number of Vertices
  75, 25, 3.8,                            !- X,Y,Z Vertex 1 {m}
  75, 25, 0,                              !- X,Y,Z Vertex 2 {m}
  -25, 25, 0,                             !- X,Y,Z Vertex 3 {m}
  -25, 25, 3.8;                           !- X,Y,Z Vertex 4 {m}

OS:Surface,
  {5372b25d-82e9-457c-bcd6-6ad47063d7a7}, !- Handle
  Surface 9,                              !- Name
  Wall,                                   !- Surface Type
  ,                                       !- Construction Name
  {4a83fdac-7bb5-4b3f-90da-5a557df75978}, !- Space Name
  Surface,                                !- Outside Boundary Condition
  {57d519a8-98c3-49f6-b5b3-45dcd1cc7511}, !- Outside Boundary Condition Object
  NoSun,                                  !- Sun Exposure
  NoWind,                                 !- Wind Exposure
  ,                                       !- View Factor to Ground
  ,                                       !- Number of Vertices
  50, 0, 3.8,                             !- X,Y,Z Vertex 1 {m}
  50, 0, 0,                               !- X,Y,Z Vertex 2 {m}
  75, 25, 0,                              !- X,Y,Z Vertex 3 {m}
  75, 25, 3.8;                            !- X,Y,Z Vertex 4 {m}

OS:Surface,
  {ced58bcc-0599-4a53-901a-d085b0336854}, !- Handle
  Surface 10,                             !- Name
  Wall,                                   !- Surface Type
  ,                                       !- Construction Name
  {4a83fdac-7bb5-4b3f-90da-5a557df75978}, !- Space Name
  Surface,                                !- Outside Boundary Condition
  {8af67c64-7fc7-44c6-acee-5903f9adbd71}, !- Outside Boundary Condition Object
  NoSun,                                  !- Sun Exposure
  NoWind,                                 !- Wind Exposure
  ,                                       !- View Factor to Ground
  ,                                       !- Number of Vertices
  0, 0, 3.8,                              !- X,Y,Z Vertex 1 {m}
  0, 0, 0,                                !- X,Y,Z Vertex 2 {m}
  50, 0, 0,                               !- X,Y,Z Vertex 3 {m}
  50, 0, 3.8;                             !- X,Y,Z Vertex 4 {m}

OS:Surface,
  {c2cdf1b1-2317-421c-ae50-2809c925cb06}, !- Handle
  Surface 11,                             !- Name
  Wall,                                   !- Surface Type
  ,                                       !- Construction Name
  {4a83fdac-7bb5-4b3f-90da-5a557df75978}, !- Space Name
  Surface,                                !- Outside Boundary Condition
  {c0e0abed-eeb8-4261-886f-4e35bbfa8cf2}, !- Outside Boundary Condition Object
  NoSun,                                  !- Sun Exposure
  NoWind,                                 !- Wind Exposure
  ,                                       !- View Factor to Ground
  ,                                       !- Number of Vertices
  -25, 25, 3.8,                           !- X,Y,Z Vertex 1 {m}
  -25, 25, 0,                             !- X,Y,Z Vertex 2 {m}
  0, 0, 0,                                !- X,Y,Z Vertex 3 {m}
  0, 0, 3.8;                              !- X,Y,Z Vertex 4 {m}

OS:Surface,
  {4c60c574-bbb3-4dc7-a402-d9b2dc7c1c01}, !- Handle
  Surface 12,                             !- Name
  RoofCeiling,                            !- Surface Type
  ,                                       !- Construction Name
  {4a83fdac-7bb5-4b3f-90da-5a557df75978}, !- Space Name
  Ground,                                 !- Outside Boundary Condition
  ,                                       !- Outside Boundary Condition Object
  NoSun,                                  !- Sun Exposure
  NoWind,                                 !- Wind Exposure
  ,                                       !- View Factor to Ground
  ,                                       !- Number of Vertices
  0, 0, 3.8,                              !- X,Y,Z Vertex 1 {m}
  50, 0, 3.8,                             !- X,Y,Z Vertex 2 {m}
  75, 25, 3.8,                            !- X,Y,Z Vertex 3 {m}
  -25, 25, 3.8;                           !- X,Y,Z Vertex 4 {m}

OS:Space,
  {455ecf98-6086-4696-ab17-5d0ce6266024}, !- Handle
  Washroom other-sch-K-Space Function,    !- Name
  {fc46bf63-79a2-44f0-bf7b-5e4e5af675ea}, !- Space Type Name
  ,                                       !- Default Construction Set Name
  ,                                       !- Default Schedule Set Name
  -0,                                     !- Direction of Relative North {deg}
  75,                                     !- X Origin {m}
  25,                                     !- Y Origin {m}
  0,                                      !- Z Origin {m}
  {b4bcf74f-8140-4ccf-a160-9104e9ddb91a}, !- Building Story Name
  {020a218e-8434-4e79-a5ad-b72cc144fb98}; !- Thermal Zone Name

OS:Surface,
  {f60e7d15-5f9b-457a-a597-6377c24c30a2}, !- Handle
  Surface 13,                             !- Name
  Floor,                                  !- Surface Type
  ,                                       !- Construction Name
  {455ecf98-6086-4696-ab17-5d0ce6266024}, !- Space Name
  Ground,                                 !- Outside Boundary Condition
  ,                                       !- Outside Boundary Condition Object
  NoSun,                                  !- Sun Exposure
  NoWind,                                 !- Wind Exposure
  ,                                       !- View Factor to Ground
  ,                                       !- Number of Vertices
  25, 75, 0,                              !- X,Y,Z Vertex 1 {m}
  25, -25, 0,                             !- X,Y,Z Vertex 2 {m}
  0, 0, 0,                                !- X,Y,Z Vertex 3 {m}
  0, 50, 0;                               !- X,Y,Z Vertex 4 {m}

OS:Surface,
  {0546d585-016f-42f6-b882-18116eabd2a1}, !- Handle
  Surface 14,                             !- Name
  Wall,                                   !- Surface Type
  ,                                       !- Construction Name
  {455ecf98-6086-4696-ab17-5d0ce6266024}, !- Space Name
  Ground,                                 !- Outside Boundary Condition
  ,                                       !- Outside Boundary Condition Object
  NoSun,                                  !- Sun Exposure
  NoWind,                                 !- Wind Exposure
  ,                                       !- View Factor to Ground
  ,                                       !- Number of Vertices
  25, -25, 3.8,                           !- X,Y,Z Vertex 1 {m}
  25, -25, 0,                             !- X,Y,Z Vertex 2 {m}
  25, 75, 0,                              !- X,Y,Z Vertex 3 {m}
  25, 75, 3.8;                            !- X,Y,Z Vertex 4 {m}

OS:Surface,
  {bce4517e-150b-472f-a516-451a4f61ee78}, !- Handle
  Surface 15,                             !- Name
  Wall,                                   !- Surface Type
  ,                                       !- Construction Name
  {455ecf98-6086-4696-ab17-5d0ce6266024}, !- Space Name
  Surface,                                !- Outside Boundary Condition
  {addaf4e7-d5f7-4418-bb07-b5ffffc09762}, !- Outside Boundary Condition Object
  NoSun,                                  !- Sun Exposure
  NoWind,                                 !- Wind Exposure
  ,                                       !- View Factor to Ground
  ,                                       !- Number of Vertices
  0, 0, 3.8,                              !- X,Y,Z Vertex 1 {m}
  0, 0, 0,                                !- X,Y,Z Vertex 2 {m}
  25, -25, 0,                             !- X,Y,Z Vertex 3 {m}
  25, -25, 3.8;                           !- X,Y,Z Vertex 4 {m}

OS:Surface,
  {a8669523-49ba-4263-92a5-1db04f6d5d64}, !- Handle
  Surface 16,                             !- Name
  Wall,                                   !- Surface Type
  ,                                       !- Construction Name
  {455ecf98-6086-4696-ab17-5d0ce6266024}, !- Space Name
  Surface,                                !- Outside Boundary Condition
  {3f6e450f-8c7c-4de4-b1b1-48a69319ca29}, !- Outside Boundary Condition Object
  NoSun,                                  !- Sun Exposure
  NoWind,                                 !- Wind Exposure
  ,                                       !- View Factor to Ground
  ,                                       !- Number of Vertices
  0, 50, 3.8,                             !- X,Y,Z Vertex 1 {m}
  0, 50, 0,                               !- X,Y,Z Vertex 2 {m}
  0, 0, 0,                                !- X,Y,Z Vertex 3 {m}
  0, 0, 3.8;                              !- X,Y,Z Vertex 4 {m}

OS:Surface,
  {57d519a8-98c3-49f6-b5b3-45dcd1cc7511}, !- Handle
  Surface 17,                             !- Name
  Wall,                                   !- Surface Type
  ,                                       !- Construction Name
  {455ecf98-6086-4696-ab17-5d0ce6266024}, !- Space Name
  Surface,                                !- Outside Boundary Condition
  {5372b25d-82e9-457c-bcd6-6ad47063d7a7}, !- Outside Boundary Condition Object
  NoSun,                                  !- Sun Exposure
  NoWind,                                 !- Wind Exposure
  ,                                       !- View Factor to Ground
  ,                                       !- Number of Vertices
  25, 75, 3.8,                            !- X,Y,Z Vertex 1 {m}
  25, 75, 0,                              !- X,Y,Z Vertex 2 {m}
  0, 50, 0,                               !- X,Y,Z Vertex 3 {m}
  0, 50, 3.8;                             !- X,Y,Z Vertex 4 {m}

OS:Surface,
  {e96adf03-99e9-42b8-a31f-9dfba706420f}, !- Handle
  Surface 18,                             !- Name
  RoofCeiling,                            !- Surface Type
  ,                                       !- Construction Name
  {455ecf98-6086-4696-ab17-5d0ce6266024}, !- Space Name
  Ground,                                 !- Outside Boundary Condition
  ,                                       !- Outside Boundary Condition Object
  NoSun,                                  !- Sun Exposure
  NoWind,                                 !- Wind Exposure
  ,                                       !- View Factor to Ground
  ,                                       !- Number of Vertices
  0, 50, 3.8,                             !- X,Y,Z Vertex 1 {m}
  0, 0, 3.8,                              !- X,Y,Z Vertex 2 {m}
  25, -25, 3.8,                           !- X,Y,Z Vertex 3 {m}
  25, 75, 3.8;                            !- X,Y,Z Vertex 4 {m}

OS:Space,
  {a17b11d5-d303-43af-b135-c3f2a38bbe22}, !- Handle
  Washroom - other-sch-J-Space Function,  !- Name
  {2c94a0c7-2706-4d46-b57e-d63c9fdf6f1e}, !- Space Type Name
  ,                                       !- Default Construction Set Name
  ,                                       !- Default Schedule Set Name
  -0,                                     !- Direction of Relative North {deg}
  0,                                      !- X Origin {m}
  0,                                      !- Y Origin {m}
  0,                                      !- Z Origin {m}
  {b4bcf74f-8140-4ccf-a160-9104e9ddb91a}, !- Building Story Name
  {66c3fa75-abd9-423d-9031-04e1b8cdc1ab}; !- Thermal Zone Name

OS:Surface,
  {51a0cbae-850d-4450-a174-ff41c1544ea6}, !- Handle
  Surface 19,                             !- Name
  Floor,                                  !- Surface Type
  ,                                       !- Construction Name
  {a17b11d5-d303-43af-b135-c3f2a38bbe22}, !- Space Name
  Ground,                                 !- Outside Boundary Condition
  ,                                       !- Outside Boundary Condition Object
  NoSun,                                  !- Sun Exposure
  NoWind,                                 !- Wind Exposure
  ,                                       !- View Factor to Ground
  ,                                       !- Number of Vertices
  100, 0, 0,                              !- X,Y,Z Vertex 1 {m}
  0, 0, 0,                                !- X,Y,Z Vertex 2 {m}
  25, 25, 0,                              !- X,Y,Z Vertex 3 {m}
  75, 25, 0;                              !- X,Y,Z Vertex 4 {m}

OS:Surface,
  {0a2a8eba-3fa3-4d3c-89a0-9dfc4d996747}, !- Handle
  Surface 20,                             !- Name
  Wall,                                   !- Surface Type
  ,                                       !- Construction Name
  {a17b11d5-d303-43af-b135-c3f2a38bbe22}, !- Space Name
  Ground,                                 !- Outside Boundary Condition
  ,                                       !- Outside Boundary Condition Object
  NoSun,                                  !- Sun Exposure
  NoWind,                                 !- Wind Exposure
  ,                                       !- View Factor to Ground
  ,                                       !- Number of Vertices
  0, 0, 3.8,                              !- X,Y,Z Vertex 1 {m}
  0, 0, 0,                                !- X,Y,Z Vertex 2 {m}
  100, 0, 0,                              !- X,Y,Z Vertex 3 {m}
  100, 0, 3.8;                            !- X,Y,Z Vertex 4 {m}

OS:Surface,
  {c502b45f-9243-46bc-aeda-353689f9a139}, !- Handle
  Surface 21,                             !- Name
  Wall,                                   !- Surface Type
  ,                                       !- Construction Name
  {a17b11d5-d303-43af-b135-c3f2a38bbe22}, !- Space Name
  Surface,                                !- Outside Boundary Condition
  {d1b97f83-939c-4cd7-8d37-f0db11d08151}, !- Outside Boundary Condition Object
  NoSun,                                  !- Sun Exposure
  NoWind,                                 !- Wind Exposure
  ,                                       !- View Factor to Ground
  ,                                       !- Number of Vertices
  25, 25, 3.8,                            !- X,Y,Z Vertex 1 {m}
  25, 25, 0,                              !- X,Y,Z Vertex 2 {m}
  0, 0, 0,                                !- X,Y,Z Vertex 3 {m}
  0, 0, 3.8;                              !- X,Y,Z Vertex 4 {m}

OS:Surface,
  {70286c8f-7656-4ca9-bb8d-1dc7c128c406}, !- Handle
  Surface 22,                             !- Name
  Wall,                                   !- Surface Type
  ,                                       !- Construction Name
  {a17b11d5-d303-43af-b135-c3f2a38bbe22}, !- Space Name
  Surface,                                !- Outside Boundary Condition
  {7d9fe629-8562-423c-80d4-7b26dd309148}, !- Outside Boundary Condition Object
  NoSun,                                  !- Sun Exposure
  NoWind,                                 !- Wind Exposure
  ,                                       !- View Factor to Ground
  ,                                       !- Number of Vertices
  75, 25, 3.8,                            !- X,Y,Z Vertex 1 {m}
  75, 25, 0,                              !- X,Y,Z Vertex 2 {m}
  25, 25, 0,                              !- X,Y,Z Vertex 3 {m}
  25, 25, 3.8;                            !- X,Y,Z Vertex 4 {m}

OS:Surface,
  {addaf4e7-d5f7-4418-bb07-b5ffffc09762}, !- Handle
  Surface 23,                             !- Name
  Wall,                                   !- Surface Type
  ,                                       !- Construction Name
  {a17b11d5-d303-43af-b135-c3f2a38bbe22}, !- Space Name
  Surface,                                !- Outside Boundary Condition
  {bce4517e-150b-472f-a516-451a4f61ee78}, !- Outside Boundary Condition Object
  NoSun,                                  !- Sun Exposure
  NoWind,                                 !- Wind Exposure
  ,                                       !- View Factor to Ground
  ,                                       !- Number of Vertices
  100, 0, 3.8,                            !- X,Y,Z Vertex 1 {m}
  100, 0, 0,                              !- X,Y,Z Vertex 2 {m}
  75, 25, 0,                              !- X,Y,Z Vertex 3 {m}
  75, 25, 3.8;                            !- X,Y,Z Vertex 4 {m}

OS:Surface,
  {34b54eef-327f-4d5c-a057-09106a7a600c}, !- Handle
  Surface 24,                             !- Name
  RoofCeiling,                            !- Surface Type
  ,                                       !- Construction Name
  {a17b11d5-d303-43af-b135-c3f2a38bbe22}, !- Space Name
  Ground,                                 !- Outside Boundary Condition
  ,                                       !- Outside Boundary Condition Object
  NoSun,                                  !- Sun Exposure
  NoWind,                                 !- Wind Exposure
  ,                                       !- View Factor to Ground
  ,                                       !- Number of Vertices
  75, 25, 3.8,                            !- X,Y,Z Vertex 1 {m}
  25, 25, 3.8,                            !- X,Y,Z Vertex 2 {m}
  0, 0, 3.8,                              !- X,Y,Z Vertex 3 {m}
  100, 0, 3.8;                            !- X,Y,Z Vertex 4 {m}

OS:Space,
  {d81f6212-aa34-4b1f-a8b8-3cfe7d589598}, !- Handle
  Washroom - space designed to ANSI/IES RP-28 (used primarily by residents)-sch-D-Space Function, !- Name
  {f7e196a8-19fc-4dad-a1c5-9db651e8c27a}, !- Space Type Name
  ,                                       !- Default Construction Set Name
  ,                                       !- Default Schedule Set Name
  -0,                                     !- Direction of Relative North {deg}
  25,                                     !- X Origin {m}
  25,                                     !- Y Origin {m}
  0,                                      !- Z Origin {m}
  {b4bcf74f-8140-4ccf-a160-9104e9ddb91a}, !- Building Story Name
  {70f4d154-a11a-429c-865c-26aeb643c3d9}; !- Thermal Zone Name

OS:Surface,
  {9089aca7-fefd-4220-b003-8c1e055ba6b1}, !- Handle
  Surface 25,                             !- Name
  Floor,                                  !- Surface Type
  ,                                       !- Construction Name
  {d81f6212-aa34-4b1f-a8b8-3cfe7d589598}, !- Space Name
  Ground,                                 !- Outside Boundary Condition
  ,                                       !- Outside Boundary Condition Object
  NoSun,                                  !- Sun Exposure
  NoWind,                                 !- Wind Exposure
  ,                                       !- View Factor to Ground
  ,                                       !- Number of Vertices
  0, 0, 0,                                !- X,Y,Z Vertex 1 {m}
  0, 50, 0,                               !- X,Y,Z Vertex 2 {m}
  50, 50, 0,                              !- X,Y,Z Vertex 3 {m}
  50, 0, 0;                               !- X,Y,Z Vertex 4 {m}

OS:Surface,
  {68667236-febd-4404-a57f-ded16b2455c1}, !- Handle
  Surface 26,                             !- Name
  Wall,                                   !- Surface Type
  ,                                       !- Construction Name
  {d81f6212-aa34-4b1f-a8b8-3cfe7d589598}, !- Space Name
  Surface,                                !- Outside Boundary Condition
  {327b919f-c8d0-4474-befd-be07e0dd5890}, !- Outside Boundary Condition Object
  NoSun,                                  !- Sun Exposure
  NoWind,                                 !- Wind Exposure
  ,                                       !- View Factor to Ground
  ,                                       !- Number of Vertices
  0, 50, 3.8,                             !- X,Y,Z Vertex 1 {m}
  0, 50, 0,                               !- X,Y,Z Vertex 2 {m}
  0, 0, 0,                                !- X,Y,Z Vertex 3 {m}
  0, 0, 3.8;                              !- X,Y,Z Vertex 4 {m}

OS:Surface,
  {8af67c64-7fc7-44c6-acee-5903f9adbd71}, !- Handle
  Surface 27,                             !- Name
  Wall,                                   !- Surface Type
  ,                                       !- Construction Name
  {d81f6212-aa34-4b1f-a8b8-3cfe7d589598}, !- Space Name
  Surface,                                !- Outside Boundary Condition