
OS:Version,
  {392f984a-1e14-42b7-927b-f12083ea34bd}, !- Handle
  2.6.0;                                  !- Version Identifier

OS:Building,
  {dc307919-6955-4b22-a42b-b453800b22db}, !- Handle
  Building 1,                             !- Name
  ,                                       !- Building Sector Type
  ,                                       !- North Axis {deg}
  ,                                       !- Nominal Floor to Floor Height {m}
  ,                                       !- Space Type Name
  {7128c26c-9edb-4ac2-8907-3be8378a8450}, !- Default Construction Set Name
  ,                                       !- Default Schedule Set Name
  1,                                      !- Standards Number of Stories
  1,                                      !- Standards Number of Above Ground Stories
  NECB2015_unknown;                       !- Standards Building Type

OS:BuildingStory,
  {81e756f2-8523-43ca-832e-3b321c713495}, !- Handle
  Story 1,                                !- Name
  0,                                      !- Nominal Z Coordinate {m}
  3.8,                                    !- Nominal Floor to Floor Height {m}
  ,                                       !- Default Construction Set Name
  ,                                       !- Default Schedule Set Name
  ;                                       !- Group Rendering Name

OS:Space,
  {bd0a660c-e605-4c91-91f7-5548e94fea47}, !- Handle
  Warehouse storage area medium to bulky palletized items-Space Function, !- Name
  {ed6df904-4e9b-4f9b-8bae-2b88121978d5}, !- Space Type Name
  ,                                       !- Default Construction Set Name
  ,                                       !- Default Schedule Set Name
  -0,                                     !- Direction of Relative North {deg}
  0,                                      !- X Origin {m}
  0,                                      !- Y Origin {m}
  0,                                      !- Z Origin {m}
  {81e756f2-8523-43ca-832e-3b321c713495}, !- Building Story Name
  {1c43736c-c1fe-464f-b6c6-31ef2c9b65d7}; !- Thermal Zone Name

OS:Surface,
  {bbaacc68-f0b0-4b7a-9b49-a3979764481d}, !- Handle
  Surface 1,                              !- Name
  Floor,                                  !- Surface Type
  ,                                       !- Construction Name
  {bd0a660c-e605-4c91-91f7-5548e94fea47}, !- Space Name
  Ground,                                 !- Outside Boundary Condition
  ,                                       !- Outside Boundary Condition Object
  NoSun,                                  !- Sun Exposure
  NoWind,                                 !- Wind Exposure
  ,                                       !- View Factor to Ground
  ,                                       !- Number of Vertices
  0, 0, 0,                                !- X,Y,Z Vertex 1 {m}
  0, 100, 0,                              !- X,Y,Z Vertex 2 {m}
  25, 75, 0,                              !- X,Y,Z Vertex 3 {m}
  25, 25, 0;                              !- X,Y,Z Vertex 4 {m}

OS:Surface,
  {143ce12c-375b-46d9-80c0-7180bf314a2c}, !- Handle
  Surface 2,                              !- Name
  Wall,                                   !- Surface Type
  ,                                       !- Construction Name
  {bd0a660c-e605-4c91-91f7-5548e94fea47}, !- Space Name
  Ground,                                 !- Outside Boundary Condition
  ,                                       !- Outside Boundary Condition Object
  NoSun,                                  !- Sun Exposure
  NoWind,                                 !- Wind Exposure
  ,                                       !- View Factor to Ground
  ,                                       !- Number of Vertices
  0, 100, 3.8,                            !- X,Y,Z Vertex 1 {m}
  0, 100, 0,                              !- X,Y,Z Vertex 2 {m}
  0, 0, 0,                                !- X,Y,Z Vertex 3 {m}
  0, 0, 3.8;                              !- X,Y,Z Vertex 4 {m}

OS:Surface,
  {ef00939a-73be-4817-bdc6-3589bc11b242}, !- Handle
  Surface 3,                              !- Name
  Wall,                                   !- Surface Type
  ,                                       !- Construction Name
  {bd0a660c-e605-4c91-91f7-5548e94fea47}, !- Space Name
  Surface,                                !- Outside Boundary Condition
  {7e4fa5b8-4c33-4573-84d2-9cfa8e244be2}, !- Outside Boundary Condition Object
  NoSun,                                  !- Sun Exposure
  NoWind,                                 !- Wind Exposure
  ,                                       !- View Factor to Ground
  ,                                       !- Number of Vertices
  25, 75, 3.8,                            !- X,Y,Z Vertex 1 {m}
  25, 75, 0,                              !- X,Y,Z Vertex 2 {m}
  0, 100, 0,                              !- X,Y,Z Vertex 3 {m}
  0, 100, 3.8;                            !- X,Y,Z Vertex 4 {m}

OS:Surface,
  {ea6edd03-c939-451f-95f2-0863652ffa90}, !- Handle
  Surface 4,                              !- Name
  Wall,                                   !- Surface Type
  ,                                       !- Construction Name
  {bd0a660c-e605-4c91-91f7-5548e94fea47}, !- Space Name
  Surface,                                !- Outside Boundary Condition
  {62b2e7cd-d765-4d08-8855-623d79a1b59d}, !- Outside Boundary Condition Object
  NoSun,                                  !- Sun Exposure
  NoWind,                                 !- Wind Exposure
  ,                                       !- View Factor to Ground
  ,                                       !- Number of Vertices
  25, 25, 3.8,                            !- X,Y,Z Vertex 1 {m}
  25, 25, 0,                              !- X,Y,Z Vertex 2 {m}
  25, 75, 0,                              !- X,Y,Z Vertex 3 {m}
  25, 75, 3.8;                            !- X,Y,Z Vertex 4 {m}

OS:Surface,
  {5343d3a6-7ad8-4738-89ba-7eb0e2897411}, !- Handle
  Surface 5,                              !- Name
  Wall,                                   !- Surface Type
  ,                                       !- Construction Name
  {bd0a660c-e605-4c91-91f7-5548e94fea47}, !- Space Name
  Surface,                                !- Outside Boundary Condition
  {9b1882e4-f190-4584-bcae-4e68dd9116fe}, !- Outside Boundary Condition Object
  NoSun,                                  !- Sun Exposure
  NoWind,                                 !- Wind Exposure
  ,                                       !- View Factor to Ground
  ,                                       !- Number of Vertices
  0, 0, 3.8,                              !- X,Y,Z Vertex 1 {m}
  0, 0, 0,                                !- X,Y,Z Vertex 2 {m}
  25, 25, 0,                              !- X,Y,Z Vertex 3 {m}
  25, 25, 3.8;                            !- X,Y,Z Vertex 4 {m}

OS:Surface,
  {055ed25a-d7f2-4600-8721-3bb4eb79fd5e}, !- Handle
  Surface 6,                              !- Name
  RoofCeiling,                            !- Surface Type
  ,                                       !- Construction Name
  {bd0a660c-e605-4c91-91f7-5548e94fea47}, !- Space Name
  Ground,                                 !- Outside Boundary Condition
  ,                                       !- Outside Boundary Condition Object
  NoSun,                                  !- Sun Exposure
  NoWind,                                 !- Wind Exposure
  ,                                       !- View Factor to Ground
  ,                                       !- Number of Vertices
  25, 25, 3.8,                            !- X,Y,Z Vertex 1 {m}
  25, 75, 3.8,                            !- X,Y,Z Vertex 2 {m}
  0, 100, 3.8,                            !- X,Y,Z Vertex 3 {m}
  0, 0, 3.8;                              !- X,Y,Z Vertex 4 {m}

OS:Space,
  {1c9c02bc-2d88-4ef0-ad6e-b36ebcf81cd1}, !- Handle
  Transportation facility terminal ticket counter-Space Function, !- Name
  {578909a6-e015-4cbd-84bb-b1d13f5896af}, !- Space Type Name
  ,                                       !- Default Construction Set Name
  ,                                       !- Default Schedule Set Name
  -0,                                     !- Direction of Relative North {deg}
  25,                                     !- X Origin {m}
  75,                                     !- Y Origin {m}
  0,                                      !- Z Origin {m}
  {81e756f2-8523-43ca-832e-3b321c713495}, !- Building Story Name
  {24bb9813-8411-42b7-b4a8-ad7e89e20822}; !- Thermal Zone Name

OS:Surface,
  {6d21a359-a39b-4d17-8870-c96aa4af528e}, !- Handle
  Surface 7,                              !- Name
  Floor,                                  !- Surface Type
  ,                                       !- Construction Name
  {1c9c02bc-2d88-4ef0-ad6e-b36ebcf81cd1}, !- Space Name
  Ground,                                 !- Outside Boundary Condition
  ,                                       !- Outside Boundary Condition Object
  NoSun,                                  !- Sun Exposure
  NoWind,                                 !- Wind Exposure
  ,                                       !- View Factor to Ground
  ,                                       !- Number of Vertices
  -25, 25, 0,                             !- X,Y,Z Vertex 1 {m}
  75, 25, 0,                              !- X,Y,Z Vertex 2 {m}
  50, 0, 0,                               !- X,Y,Z Vertex 3 {m}
  0, 0, 0;                                !- X,Y,Z Vertex 4 {m}

OS:Surface,
  {999d9741-cb49-4f11-adba-bb2254b670db}, !- Handle
  Surface 8,                              !- Name
  Wall,                                   !- Surface Type
  ,                                       !- Construction Name
  {1c9c02bc-2d88-4ef0-ad6e-b36ebcf81cd1}, !- Space Name
  Ground,                                 !- Outside Boundary Condition
  ,                                       !- Outside Boundary Condition Object
  NoSun,                                  !- Sun Exposure
  NoWind,                                 !- Wind Exposure
  ,                                       !- View Factor to Ground
  ,                                       !- Number of Vertices
  75, 25, 3.8,                            !- X,Y,Z Vertex 1 {m}
  75, 25, 0,                              !- X,Y,Z Vertex 2 {m}
  -25, 25, 0,                             !- X,Y,Z Vertex 3 {m}
  -25, 25, 3.8;                           !- X,Y,Z Vertex 4 {m}

OS:Surface,
  {313225c9-9029-4a18-bdcf-84db22510e27}, !- Handle
  Surface 9,                              !- Name
  Wall,                                   !- Surface Type
  ,                                       !- Construction Name
  {1c9c02bc-2d88-4ef0-ad6e-b36ebcf81cd1}, !- Space Name
  Surface,                                !- Outside Boundary Condition
  {c139ad23-a5c9-4cbb-9ff2-41f6008c9bf7}, !- Outside Boundary Condition Object
  NoSun,                                  !- Sun Exposure
  NoWind,                                 !- Wind Exposure
  ,                                       !- View Factor to Ground
  ,                                       !- Number of Vertices
  50, 0, 3.8,                             !- X,Y,Z Vertex 1 {m}
  50, 0, 0,                               !- X,Y,Z Vertex 2 {m}
  75, 25, 0,                              !- X,Y,Z Vertex 3 {m}
  75, 25, 3.8;                            !- X,Y,Z Vertex 4 {m}

OS:Surface,
  {f6d346f0-c81b-4369-b4ff-2941c6f520dd}, !- Handle
  Surface 10,                             !- Name
  Wall,                                   !- Surface Type
  ,                                       !- Construction Name
  {1c9c02bc-2d88-4ef0-ad6e-b36ebcf81cd1}, !- Space Name
  Surface,                                !- Outside Boundary Condition
  {d014a18c-bf32-4347-a056-dc508e671555}, !- Outside Boundary Condition Object
  NoSun,                                  !- Sun Exposure
  NoWind,                                 !- Wind Exposure
  ,                                       !- View Factor to Ground
  ,                                       !- Number of Vertices
  0, 0, 3.8,                              !- X,Y,Z Vertex 1 {m}
  0, 0, 0,                                !- X,Y,Z Vertex 2 {m}
  50, 0, 0,                               !- X,Y,Z Vertex 3 {m}
  50, 0, 3.8;                             !- X,Y,Z Vertex 4 {m}

OS:Surface,
  {7e4fa5b8-4c33-4573-84d2-9cfa8e244be2}, !- Handle
  Surface 11,                             !- Name
  Wall,                                   !- Surface Type
  ,                                       !- Construction Name
  {1c9c02bc-2d88-4ef0-ad6e-b36ebcf81cd1}, !- Space Name
  Surface,                                !- Outside Boundary Condition
  {ef00939a-73be-4817-bdc6-3589bc11b242}, !- Outside Boundary Condition Object
  NoSun,                                  !- Sun Exposure
  NoWind,                                 !- Wind Exposure
  ,                                       !- View Factor to Ground
  ,                                       !- Number of Vertices
  -25, 25, 3.8,                           !- X,Y,Z Vertex 1 {m}
  -25, 25, 0,                             !- X,Y,Z Vertex 2 {m}
  0, 0, 0,                                !- X,Y,Z Vertex 3 {m}
  0, 0, 3.8;                              !- X,Y,Z Vertex 4 {m}

OS:Surface,
  {4a98fd2d-ae59-4862-a561-3e20d3218352}, !- Handle
  Surface 12,                             !- Name
  RoofCeiling,                            !- Surface Type
  ,                                       !- Construction Name
  {1c9c02bc-2d88-4ef0-ad6e-b36ebcf81cd1}, !- Space Name
  Ground,                                 !- Outside Boundary Condition
  ,                                       !- Outside Boundary Condition Object
  NoSun,                                  !- Sun Exposure
  NoWind,                                 !- Wind Exposure
  ,                                       !- View Factor to Ground
  ,                                       !- Number of Vertices
  0, 0, 3.8,                              !- X,Y,Z Vertex 1 {m}
  50, 0, 3.8,                             !- X,Y,Z Vertex 2 {m}
  75, 25, 3.8,                            !- X,Y,Z Vertex 3 {m}
  -25, 25, 3.8;                           !- X,Y,Z Vertex 4 {m}

OS:Space,
  {59e5f6e5-e659-44bb-9dcb-bad91ffceb90}, !- Handle
  Sports arena playing area class III facility(4)-Space Function, !- Name
  {5e2384c5-401e-4756-8685-9e6e36cf4b38}, !- Space Type Name
  ,                                       !- Default Construction Set Name
  ,                                       !- Default Schedule Set Name
  -0,                                     !- Direction of Relative North {deg}
  75,                                     !- X Origin {m}
  25,                                     !- Y Origin {m}
  0,                                      !- Z Origin {m}
  {81e756f2-8523-43ca-832e-3b321c713495}, !- Building Story Name
  {5d02fd4a-3249-4750-a4f8-e88183e149c2}; !- Thermal Zone Name

OS:Surface,
  {853ec900-e623-45fa-9fd3-50055cdfc122}, !- Handle
  Surface 13,                             !- Name
  Floor,                                  !- Surface Type
  ,                                       !- Construction Name
  {59e5f6e5-e659-44bb-9dcb-bad91ffceb90}, !- Space Name
  Ground,                                 !- Outside Boundary Condition
  ,                                       !- Outside Boundary Condition Object
  NoSun,                                  !- Sun Exposure
  NoWind,                                 !- Wind Exposure
  ,                                       !- View Factor to Ground
  ,                                       !- Number of Vertices
  25, 75, 0,                              !- X,Y,Z Vertex 1 {m}
  25, -25, 0,                             !- X,Y,Z Vertex 2 {m}
  0, 0, 0,                                !- X,Y,Z Vertex 3 {m}
  0, 50, 0;                               !- X,Y,Z Vertex 4 {m}

OS:Surface,
  {2b80a7a0-0690-4932-a903-31840bd6e34f}, !- Handle
  Surface 14,                             !- Name
  Wall,                                   !- Surface Type
  ,                                       !- Construction Name
  {59e5f6e5-e659-44bb-9dcb-bad91ffceb90}, !- Space Name
  Ground,                                 !- Outside Boundary Condition
  ,                                       !- Outside Boundary Condition Object
  NoSun,                                  !- Sun Exposure
  NoWind,                                 !- Wind Exposure
  ,                                       !- View Factor to Ground
  ,                                       !- Number of Vertices
  25, -25, 3.8,                           !- X,Y,Z Vertex 1 {m}
  25, -25, 0,                             !- X,Y,Z Vertex 2 {m}
  25, 75, 0,                              !- X,Y,Z Vertex 3 {m}
  25, 75, 3.8;                            !- X,Y,Z Vertex 4 {m}

OS:Surface,
  {42d989a0-a1bd-4702-b840-1a5a47524417}, !- Handle
  Surface 15,                             !- Name
  Wall,                                   !- Surface Type
  ,                                       !- Construction Name
  {59e5f6e5-e659-44bb-9dcb-bad91ffceb90}, !- Space Name
  Surface,                                !- Outside Boundary Condition
  {979570d6-0468-491d-9067-e1a436934534}, !- Outside Boundary Condition Object
  NoSun,                                  !- Sun Exposure
  NoWind,                                 !- Wind Exposure
  ,                                       !- View Factor to Ground
  ,                                       !- Number of Vertices
  0, 0, 3.8,                              !- X,Y,Z Vertex 1 {m}
  0, 0, 0,                                !- X,Y,Z Vertex 2 {m}
  25, -25, 0,                             !- X,Y,Z Vertex 3 {m}
  25, -25, 3.8;                           !- X,Y,Z Vertex 4 {m}

OS:Surface,
  {375abf0f-15ff-41d3-9241-8144aab9145a}, !- Handle
  Surface 16,                             !- Name
  Wall,                                   !- Surface Type
  ,                                       !- Construction Name
  {59e5f6e5-e659-44bb-9dcb-bad91ffceb90}, !- Space Name
  Surface,                                !- Outside Boundary Condition
  {39ce9dee-aa6c-4708-bf5a-804418ed7c00}, !- Outside Boundary Condition Object
  NoSun,                                  !- Sun Exposure
  NoWind,                                 !- Wind Exposure
  ,                                       !- View Factor to Ground
  ,                                       !- Number of Vertices
  0, 50, 3.8,                             !- X,Y,Z Vertex 1 {m}
  0, 50, 0,                               !- X,Y,Z Vertex 2 {m}
  0, 0, 0,                                !- X,Y,Z Vertex 3 {m}
  0, 0, 3.8;                              !- X,Y,Z Vertex 4 {m}

OS:Surface,
  {c139ad23-a5c9-4cbb-9ff2-41f6008c9bf7}, !- Handle
  Surface 17,                             !- Name
  Wall,                                   !- Surface Type
  ,                                       !- Construction Name
  {59e5f6e5-e659-44bb-9dcb-bad91ffceb90}, !- Space Name
  Surface,                                !- Outside Boundary Condition
  {313225c9-9029-4a18-bdcf-84db22510e27}, !- Outside Boundary Condition Object
  NoSun,                                  !- Sun Exposure
  NoWind,                                 !- Wind Exposure
  ,                                       !- View Factor to Ground
  ,                                       !- Number of Vertices
  25, 75, 3.8,                            !- X,Y,Z Vertex 1 {m}
  25, 75, 0,                              !- X,Y,Z Vertex 2 {m}
  0, 50, 0,                               !- X,Y,Z Vertex 3 {m}
  0, 50, 3.8;                             !- X,Y,Z Vertex 4 {m}

OS:Surface,
  {43261f5c-97f7-49d7-be3d-1d46e17c40ef}, !- Handle
  Surface 18,                             !- Name
  RoofCeiling,                            !- Surface Type
  ,                                       !- Construction Name
  {59e5f6e5-e659-44bb-9dcb-bad91ffceb90}, !- Space Name
  Ground,                                 !- Outside Boundary Condition
  ,                                       !- Outside Boundary Condition Object
  NoSun,                                  !- Sun Exposure
  NoWind,                                 !- Wind Exposure
  ,                                       !- View Factor to Ground
  ,                                       !- Number of Vertices
  0, 50, 3.8,                             !- X,Y,Z Vertex 1 {m}
  0, 0, 3.8,                              !- X,Y,Z Vertex 2 {m}
  25, -25, 3.8,                           !- X,Y,Z Vertex 3 {m}
  25, 75, 3.8;                            !- X,Y,Z Vertex 4 {m}

OS:Space,
  {4e917228-8307-4b96-b426-9b075c9ef61c}, !- Handle
  Sports arena playing area class II facility(4)-Space Function, !- Name
  {aa6dcdc9-d0ec-4cb0-bea0-c916ed1d2b01}, !- Space Type Name
  ,                                       !- Default Construction Set Name
  ,                                       !- Default Schedule Set Name
  -0,                                     !- Direction of Relative North {deg}
  0,                                      !- X Origin {m}
  0,                                      !- Y Origin {m}
  0,                                      !- Z Origin {m}
  {81e756f2-8523-43ca-832e-3b321c713495}, !- Building Story Name
  {81a1731c-94b9-455b-9e0a-a3aa0cde0a97}; !- Thermal Zone Name

OS:Surface,
  {83a06896-cf6a-41fb-9c66-29ee8dcd562f}, !- Handle
  Surface 19,                             !- Name
  Floor,                                  !- Surface Type
  ,                                       !- Construction Name
  {4e917228-8307-4b96-b426-9b075c9ef61c}, !- Space Name
  Ground,                                 !- Outside Boundary Condition
  ,                                       !- Outside Boundary Condition Object
  NoSun,                                  !- Sun Exposure
  NoWind,                                 !- Wind Exposure
  ,                                       !- View Factor to Ground
  ,                                       !- Number of Vertices
  100, 0, 0,                              !- X,Y,Z Vertex 1 {m}
  0, 0, 0,                                !- X,Y,Z Vertex 2 {m}
  25, 25, 0,                              !- X,Y,Z Vertex 3 {m}
  75, 25, 0;                              !- X,Y,Z Vertex 4 {m}

OS:Surface,
  {d9569cff-3cca-4782-ad63-28aa32230695}, !- Handle
  Surface 20,                             !- Name
  Wall,                                   !- Surface Type
  ,                                       !- Construction Name
  {4e917228-8307-4b96-b426-9b075c9ef61c}, !- Space Name
  Ground,                                 !- Outside Boundary Condition
  ,                                       !- Outside Boundary Condition Object
  NoSun,                                  !- Sun Exposure
  NoWind,                                 !- Wind Exposure
  ,                                       !- View Factor to Ground
  ,                                       !- Number of Vertices
  0, 0, 3.8,                              !- X,Y,Z Vertex 1 {m}
  0, 0, 0,                                !- X,Y,Z Vertex 2 {m}
  100, 0, 0,                              !- X,Y,Z Vertex 3 {m}
  100, 0, 3.8;                            !- X,Y,Z Vertex 4 {m}

OS:Surface,
  {9b1882e4-f190-4584-bcae-4e68dd9116fe}, !- Handle
  Surface 21,                             !- Name
  Wall,                                   !- Surface Type
  ,                                       !- Construction Name
  {4e917228-8307-4b96-b426-9b075c9ef61c}, !- Space Name
  Surface,                                !- Outside Boundary Condition
  {5343d3a6-7ad8-4738-89ba-7eb0e2897411}, !- Outside Boundary Condition Object
  NoSun,                                  !- Sun Exposure
  NoWind,                                 !- Wind Exposure
  ,                                       !- View Factor to Ground
  ,                                       !- Number of Vertices
  25, 25, 3.8,                            !- X,Y,Z Vertex 1 {m}
  25, 25, 0,                              !- X,Y,Z Vertex 2 {m}
  0, 0, 0,                                !- X,Y,Z Vertex 3 {m}
  0, 0, 3.8;                              !- X,Y,Z Vertex 4 {m}

OS:Surface,
  {597ce0a7-3f64-4d96-936b-e9c1bb60b147}, !- Handle
  Surface 22,                             !- Name
  Wall,                                   !- Surface Type
  ,                                       !- Construction Name
  {4e917228-8307-4b96-b426-9b075c9ef61c}, !- Space Name
  Surface,                                !- Outside Boundary Condition
  {a6e553ac-e33b-4e55-b5bc-eb3400e7b9a9}, !- Outside Boundary Condition Object
  NoSun,                                  !- Sun Exposure
  NoWind,                                 !- Wind Exposure
  ,                                       !- View Factor to Ground
  ,                                       !- Number of Vertices
  75, 25, 3.8,                            !- X,Y,Z Vertex 1 {m}
  75, 25, 0,                              !- X,Y,Z Vertex 2 {m}
  25, 25, 0,                              !- X,Y,Z Vertex 3 {m}
  25, 25, 3.8;                            !- X,Y,Z Vertex 4 {m}

OS:Surface,
  {979570d6-0468-491d-9067-e1a436934534}, !- Handle
  Surface 23,                             !- Name
  Wall,                                   !- Surface Type
  ,                                       !- Construction Name
  {4e917228-8307-4b96-b426-9b075c9ef61c}, !- Space Name
  Surface,                                !- Outside Boundary Condition
  {42d989a0-a1bd-4702-b840-1a5a47524417}, !- Outside Boundary Condition Object
  NoSun,                                  !- Sun Exposure
  NoWind,                                 !- Wind Exposure
  ,                                       !- View Factor to Ground
  ,                                       !- Number of Vertices
  100, 0, 3.8,                            !- X,Y,Z Vertex 1 {m}
  100, 0, 0,                              !- X,Y,Z Vertex 2 {m}
  75, 25, 0,                              !- X,Y,Z Vertex 3 {m}
  75, 25, 3.8;                            !- X,Y,Z Vertex 4 {m}

OS:Surface,
  {a4cc9248-9c78-4838-bfa7-6b63004c62ef}, !- Handle
  Surface 24,                             !- Name
  RoofCeiling,                            !- Surface Type
  ,                                       !- Construction Name
  {4e917228-8307-4b96-b426-9b075c9ef61c}, !- Space Name
  Ground,                                 !- Outside Boundary Condition
  ,                                       !- Outside Boundary Condition Object
  NoSun,                                  !- Sun Exposure
  NoWind,                                 !- Wind Exposure
  ,                                       !- View Factor to Ground
  ,                                       !- Number of Vertices
  75, 25, 3.8,                            !- X,Y,Z Vertex 1 {m}
  25, 25, 3.8,                            !- X,Y,Z Vertex 2 {m}
  0, 0, 3.8,                              !- X,Y,Z Vertex 3 {m}
  100, 0, 3.8;                            !- X,Y,Z Vertex 4 {m}

OS:Space,
  {2945ea15-0ff2-4256-b8fa-5e66b9809496}, !- Handle
  Sports arena playing area class I facility(4)-Space Function, !- Name
  {ac5de832-5eaa-4893-a30e-852f9d5e498b}, !- Space Type Name
  ,                                       !- Default Construction Set Name
  ,                                       !- Default Schedule Set Name
  -0,                                     !- Direction of Relative North {deg}
  25,                                     !- X Origin {m}
  25,                                     !- Y Origin {m}
  0,                                      !- Z Origin {m}
  {81e756f2-8523-43ca-832e-3b321c713495}, !- Building Story Name
  {5a36f2c8-498a-446f-a924-42b03f528b60}; !- Thermal Zone Name

OS:Surface,
  {a631f419-3305-4279-9cf3-6e6372e7ec50}, !- Handle
  Surface 25,                             !- Name
  Floor,                                  !- Surface Type
  ,                                       !- Construction Name
  {2945ea15-0ff2-4256-b8fa-5e66b9809496}, !- Space Name
  Ground,                                 !- Outside Boundary Condition
  ,                                       !- Outside Boundary Condition Object
  NoSun,                                  !- Sun Exposure
  NoWind,                                 !- Wind Exposure
  ,                                       !- View Factor to Ground
  ,                                       !- Number of Vertices
  0, 0, 0,                                !- X,Y,Z Vertex 1 {m}
  0, 50, 0,                               !- X,Y,Z Vertex 2 {m}
  50, 50, 0,                              !- X,Y,Z Vertex 3 {m}
  50, 0, 0;                               !- X,Y,Z Vertex 4 {m}

OS:Surface,
  {62b2e7cd-d765-4d08-8855-623d79a1b59d}, !- Handle
  Surface 26,                             !- Name
  Wall,                                   !- Surface Type
  ,                                       !- Construction Name
  {2945ea15-0ff2-4256-b8fa-5e66b9809496}, !- Space Name
  Surface,                                !- Outside Boundary Condition
  {ea6edd03-c939-451f-95f2-0863652ffa90}, !- Outside Boundary Condition Object
  NoSun,                                  !- Sun Exposure
  NoWind,                                 !- Wind Exposure
  ,                                       !- View Factor to Ground
  ,                                       !- Number of Vertices
  0, 50, 3.8,                             !- X,Y,Z Vertex 1 {m}
  0, 50, 0,                               !- X,Y,Z Vertex 2 {m}
  0, 0, 0,                                !- X,Y,Z Vertex 3 {m}
  0, 0, 3.8;                              !- X,Y,Z Vertex 4 {m}

OS:Surface,
  {d014a18c-bf32-4347-a056-dc508e671555}, !- Handle
  Surface 27,                             !- Name
  Wall,                                   !- Surface Type
  ,                                       !- Construction Name
  {2945ea15-0ff2-4256-b8fa-5e66b9809496}, !- Space Name
  Surface,                                !- Outside Boundary Condition